MODEL 1
REMARK VINA RESULT:      -0.4      0.000      0.000
REMARK WARNING: 32 MAX_TORS EXCEEDED!!!
REMARK  92 active torsions:
REMARK  status: ('A' for Active; 'I' for Inactive)
REMARK    1  A    between atoms: C5'_1  and  C4'_3 
REMARK    2  A    between atoms: C3'_5  and  O3'_6 
REMARK    3  A    between atoms: O3'_6  and  P_17 
REMARK    4  A    between atoms: C1'_8  and  N1_9 
REMARK    5  A    between atoms: P_17  and  O5'_19 
REMARK    6  A    between atoms: C5'_18  and  O5'_19 
REMARK    7  A    between atoms: C5'_18  and  C4'_20 
REMARK    8  A    between atoms: C3'_22  and  O3'_23 
REMARK    9  A    between atoms: O3'_23  and  P_39 
REMARK   10  A    between atoms: C1'_25  and  N9_36 
REMARK   11  A    between atoms: P_39  and  O5'_41 
REMARK   12  A    between atoms: C5'_40  and  O5'_41 
REMARK   13  A    between atoms: C5'_40  and  C4'_42 
REMARK   14  A    between atoms: C3'_44  and  O3'_45 
REMARK   15  A    between atoms: O3'_45  and  P_59 
REMARK   16  A    between atoms: C1'_47  and  N1_48 
REMARK   17  A    between atoms: P_59  and  O5'_61 
REMARK   18  A    between atoms: C5'_60  and  C4'_62 
REMARK   19  A    between atoms: C5'_60  and  O5'_61 
REMARK   20  A    between atoms: C3'_64  and  O3'_65 
REMARK   21  A    between atoms: O3'_65  and  P_79 
REMARK   22  A    between atoms: C1'_67  and  N1_68 
REMARK   23  A    between atoms: P_79  and  O5'_81 
REMARK   24  A    between atoms: C5'_80  and  C4'_82 
REMARK   25  A    between atoms: C5'_80  and  O5'_81 
REMARK   26  A    between atoms: C3'_84  and  O3'_85 
REMARK   27  A    between atoms: O3'_85  and  P_100 
REMARK   28  A    between atoms: C1'_87  and  N9_97 
REMARK   29  A    between atoms: P_100  and  O5'_102 
REMARK   30  A    between atoms: C5'_101  and  C4'_103 
REMARK   31  A    between atoms: C5'_101  and  O5'_102 
REMARK   32  A    between atoms: C3'_105  and  O3'_106 
REMARK   33  A    between atoms: O3'_106  and  P_119 
REMARK   34  A    between atoms: C1'_108  and  N1_109 
REMARK   35  A    between atoms: P_119  and  O5'_121 
REMARK   36  A    between atoms: C5'_120  and  O5'_121 
REMARK   37  A    between atoms: C5'_120  and  C4'_122 
REMARK   38  A    between atoms: C3'_124  and  O3'_125 
REMARK   39  A    between atoms: O3'_125  and  P_138 
REMARK   40  A    between atoms: C1'_127  and  N1_128 
REMARK   41  A    between atoms: P_138  and  O5'_140 
REMARK   42  A    between atoms: C5'_139  and  C4'_141 
REMARK   43  A    between atoms: C5'_139  and  O5'_140 
REMARK   44  A    between atoms: C3'_143  and  O3'_144 
REMARK   45  A    between atoms: O3'_144  and  P_159 
REMARK   46  A    between atoms: C1'_146  and  N9_156 
REMARK   47  A    between atoms: P_159  and  O5'_161 
REMARK   48  A    between atoms: C5'_160  and  O5'_161 
REMARK   49  A    between atoms: C5'_160  and  C4'_162 
REMARK   50  A    between atoms: C3'_164  and  O3'_165 
REMARK   51  A    between atoms: O3'_165  and  P_179 
REMARK   52  A    between atoms: C1'_167  and  N1_168 
REMARK   53  A    between atoms: P_179  and  O5'_181 
REMARK   54  A    between atoms: C5'_180  and  C4'_182 
REMARK   55  A    between atoms: C5'_180  and  O5'_181 
REMARK   56  A    between atoms: C3'_184  and  O3'_185 
REMARK   57  A    between atoms: O3'_185  and  P_201 
REMARK   58  A    between atoms: C1'_187  and  N9_198 
REMARK   59  A    between atoms: P_201  and  O5'_203 
REMARK   60  A    between atoms: C5'_202  and  O5'_203 
REMARK   61  A    between atoms: C5'_202  and  C4'_204 
REMARK   62  A    between atoms: C3'_206  and  O3'_207 
REMARK   63  A    between atoms: O3'_207  and  P_223 
REMARK   64  A    between atoms: C1'_209  and  N9_220 
REMARK   65  A    between atoms: P_223  and  O5'_225 
REMARK   66  A    between atoms: C5'_224  and  O5'_225 
REMARK   67  A    between atoms: C5'_224  and  C4'_226 
REMARK   68  A    between atoms: C3'_228  and  O3'_229 
REMARK   69  A    between atoms: O3'_229  and  P_243 
REMARK   70  A    between atoms: C1'_231  and  N1_232 
REMARK   71  A    between atoms: P_243  and  O5'_245 
REMARK   72  A    between atoms: C5'_244  and  C4'_246 
REMARK   73  A    between atoms: C5'_244  and  O5'_245 
REMARK   74  A    between atoms: C3'_248  and  O3'_249 
REMARK   75  A    between atoms: O3'_249  and  P_264 
REMARK   76  A    between atoms: C1'_251  and  N9_261 
REMARK   77  A    between atoms: P_264  and  O5'_266 
REMARK   78  A    between atoms: C5'_265  and  C4'_267 
REMARK   79  A    between atoms: C5'_265  and  O5'_266 
REMARK   80  A    between atoms: C3'_269  and  O3'_270 
REMARK   81  A    between atoms: O3'_270  and  P_285 
REMARK   82  A    between atoms: C1'_272  and  N9_282 
REMARK   83  A    between atoms: P_285  and  O5'_287 
REMARK   84  A    between atoms: C5'_286  and  O5'_287 
REMARK   85  A    between atoms: C5'_286  and  C4'_288 
REMARK   86  A    between atoms: C3'_290  and  O3'_291 
REMARK   87  A    between atoms: O3'_291  and  P_304 
REMARK   88  A    between atoms: C1'_293  and  N1_294 
REMARK   89  A    between atoms: P_304  and  O5'_306 
REMARK   90  A    between atoms: C5'_305  and  C4'_307 
REMARK   91  A    between atoms: C5'_305  and  O5'_306 
REMARK   92  A    between atoms: C1'_312  and  N9_323 
ROOT
HETATM    1  C5' BRU D   9      43.724  40.707  17.551  1.00 14.48     0.187 C 
ENDROOT
BRANCH   1   2
HETATM    2  O5' BRU D   9      42.919  39.594  17.889  1.00 12.82    -0.268 OA
BRANCH   2   3
HETATM    3  P   BRU D   9      43.494  38.125  17.767  1.00 11.11     0.410 P 
HETATM    4  OP1 BRU D   9      44.308  37.993  16.502  1.00 14.53    -0.624 OA
HETATM    5  OP2 BRU D   9      44.138  37.871  19.083  1.00 12.75    -0.624 OA
BRANCH   3   6
ATOM      6  O3'  DA D   8      42.203  37.255  17.474  1.00 11.43    -0.271 OA
BRANCH   6   7
ATOM      7  C3'  DA D   8      42.071  35.996  18.105  1.00 10.57     0.161 C 
ATOM      8  C4'  DA D   8      42.357  34.896  17.088  1.00 11.52     0.175 C 
ATOM      9  O4'  DA D   8      41.576  33.768  17.517  1.00 11.40    -0.333 OA
ATOM     10  C1'  DA D   8      40.494  34.206  18.355  1.00 11.23     0.210 C 
ATOM     11  C2'  DA D   8      40.630  35.720  18.505  1.00 12.23     0.087 C 
BRANCH   8  12
ATOM     12  C5'  DA D   8      43.799  34.474  16.963  1.00 13.06     0.187 C 
BRANCH  12  13
ATOM     13  O5'  DA D   8      44.350  34.232  18.234  1.00 11.03    -0.268 OA
BRANCH  13  14
ATOM     14  P    DA D   8      44.981  32.784  18.557  1.00 12.25     0.410 P 
ATOM     15  OP2  DA D   8      46.398  33.035  19.002  1.00 11.74    -0.624 OA
ATOM     16  OP1  DA D   8      44.732  31.869  17.433  1.00 15.55    -0.624 OA
BRANCH  14  17
ATOM     17  O3'  DC D   7      44.133  32.238  19.801  1.00 12.10    -0.271 OA
BRANCH  17  18
ATOM     18  C3'  DC D   7      43.884  30.822  19.912  1.00 11.74     0.161 C 
ATOM     19  C2'  DC D   7      43.062  30.256  18.755  1.00 11.76     0.087 C 
ATOM     20  C1'  DC D   7      43.517  28.794  18.698  1.00 12.42     0.211 C 
ATOM     21  O4'  DC D   7      44.815  28.761  19.284  1.00 12.34    -0.333 OA
ATOM     22  C4'  DC D   7      45.195  30.083  19.754  1.00 11.56     0.175 C 
BRANCH  20  23
ATOM     23  N1   DC D   7      42.632  27.992  19.575  1.00 11.09    -0.256 N 
ATOM     24  C2   DC D   7      41.563  27.331  18.966  1.00  9.80     0.353 A 
ATOM     25  O2   DC D   7      41.416  27.518  17.745  1.00 10.91    -0.244 OA
ATOM     26  N3   DC D   7      40.731  26.541  19.688  1.00  9.76    -0.171 NA
ATOM     27  C4   DC D   7      40.895  26.434  20.997  1.00 11.68     0.190 A 
ATOM     28  N4   DC D   7      40.036  25.640  21.697  1.00 10.83    -0.127 N 
ATOM     29  C5   DC D   7      41.973  27.127  21.678  1.00 10.32     0.060 A 
ATOM     30  C6   DC D   7      42.812  27.890  20.926  1.00 11.95     0.085 A 
ENDBRANCH  20  23
BRANCH  22  31
ATOM     31  C5'  DC D   7      46.011  29.951  21.010  1.00 14.18     0.187 C 
BRANCH  31  32
ATOM     32  O5'  DC D   7      45.278  29.148  21.944  1.00 16.43    -0.268 OA
BRANCH  32  33
ATOM     33  P    DC D   7      46.064  28.118  22.863  1.00 18.54     0.410 P 
ATOM     34  OP1  DC D   7      45.901  26.798  22.273  1.00 22.71    -0.624 OA
ATOM     35  OP2  DC D   7      47.383  28.698  23.105  1.00 19.79    -0.624 OA
BRANCH  33  36
ATOM     36  O3'  DC D   6      45.133  28.064  24.181  1.00 17.13    -0.271 OA
BRANCH  36  37
ATOM     37  C3'  DC D   6      44.331  29.168  24.536  1.00 14.94     0.161 C 
ATOM     38  C4'  DC D   6      44.943  29.784  25.789  1.00 15.77     0.175 C 
ATOM     39  O4'  DC D   6      44.219  29.193  26.884  1.00 13.81    -0.333 OA
ATOM     40  C1'  DC D   6      43.383  28.186  26.388  1.00 12.86     0.211 C 
ATOM     41  C2'  DC D   6      42.985  28.656  25.013  1.00 14.65     0.087 C 
BRANCH  38  42
ATOM     42  C5'  DC D   6      44.817  31.287  25.833  1.00 18.13     0.187 C 
BRANCH  42  43
ATOM     43  O5'  DC D   6      44.681  31.790  24.507  1.00 19.27    -0.268 OA
BRANCH  43  44
ATOM     44  P    DC D   6      45.764  32.812  23.913  1.00 19.84     0.410 P 
ATOM     45  OP1  DC D   6      47.008  32.011  23.778  1.00 24.35    -0.624 OA
ATOM     46  OP2  DC D   6      45.183  33.459  22.738  1.00 20.92    -0.624 OA
BRANCH  44  47
ATOM     47  O3'  DA D   5      45.971  33.814  25.134  1.00 19.93    -0.271 OA
BRANCH  47  48
ATOM     48  C3'  DA D   5      47.222  33.873  25.815  1.00 16.89     0.161 C 
ATOM     49  C4'  DA D   5      46.887  34.135  27.280  1.00 17.32     0.175 C 
ATOM     50  O4'  DA D   5      46.928  35.557  27.434  1.00 18.24    -0.333 OA
ATOM     51  C1'  DA D   5      47.393  36.173  26.219  1.00 15.77     0.210 C 
ATOM     52  C2'  DA D   5      48.060  35.083  25.407  1.00 16.34     0.087 C 
BRANCH  49  53
ATOM     53  C5'  DA D   5      47.759  33.412  28.283  1.00 17.61     0.187 C 
BRANCH  53  54
ATOM     54  O5'  DA D   5      48.180  34.322  29.295  1.00 19.33    -0.268 OA
BRANCH  54  55
ATOM     55  P    DA D   5      47.645  34.161  30.772  1.00 20.74     0.410 P 
ATOM     56  OP2  DA D   5      46.960  35.392  31.232  1.00 23.47    -0.624 OA
ATOM     57  OP1  DA D   5      48.771  33.578  31.572  1.00 23.99    -0.624 OA
BRANCH  55  58
ATOM     58  O3'  DT D   4      46.599  32.938  30.632  1.00 19.59    -0.271 OA
BRANCH  58  59
ATOM     59  C3'  DT D   4      45.424  32.856  31.466  1.00 18.10     0.161 C 
ATOM     60  C4'  DT D   4      45.820  32.172  32.784  1.00 15.82     0.175 C 
ATOM     61  O4'  DT D   4      45.338  30.818  32.703  1.00 16.38    -0.333 OA
ATOM     62  C1'  DT D   4      44.806  30.535  31.412  1.00 15.63     0.211 C 
ATOM     63  C2'  DT D   4      44.378  31.910  30.871  1.00 16.56     0.087 C 
BRANCH  60  64
ATOM     64  C5'  DT D   4      45.257  32.776  34.054  1.00 17.08     0.187 C 
BRANCH  64  65
ATOM     65  O5'  DT D   4      44.698  34.077  33.777  1.00 15.07    -0.268 OA
BRANCH  65  66
ATOM     66  P    DT D   4      43.727  34.767  34.839  1.00 15.11     0.410 P 
ATOM     67  OP1  DT D   4      43.333  33.735  35.879  1.00 18.00    -0.624 OA
ATOM     68  OP2  DT D   4      44.426  36.015  35.264  1.00 17.03    -0.624 OA
BRANCH  66  69
HETATM   69  O3' BRU D   3      42.431  35.023  34.002  1.00 15.24    -0.271 OA
BRANCH  69  70
HETATM   70  C3' BRU D   3      42.131  34.257  32.830  1.00 13.22     0.161 C 
HETATM   71  C4' BRU D   3      41.371  35.237  31.935  1.00 14.89     0.175 C 
HETATM   72  O4' BRU D   3      40.183  34.553  31.492  1.00 16.05    -0.333 OA
HETATM   73  C1' BRU D   3      39.813  33.656  32.533  1.00 15.34     0.211 C 
HETATM   74  C2' BRU D   3      41.158  33.081  33.003  1.00 12.90     0.087 C 
BRANCH  71  75
HETATM   75  C5' BRU D   3      42.098  35.884  30.784  1.00 17.61     0.187 C 
BRANCH  75  76
HETATM   76  O5' BRU D   3      42.752  37.071  31.190  1.00 15.66    -0.268 OA
BRANCH  76  77
HETATM   77  P   BRU D   3      43.886  37.654  30.227  1.00 16.77     0.410 P 
HETATM   78  OP1 BRU D   3      44.931  38.238  31.116  1.00 18.57    -0.624 OA
HETATM   79  OP2 BRU D   3      44.239  36.625  29.211  1.00 18.18    -0.624 OA
BRANCH  77  80
ATOM     80  O3'  DG D   2      43.186  38.870  29.475  1.00 17.32    -0.271 OA
BRANCH  80  81
ATOM     81  C3'  DG D   2      42.741  38.743  28.134  1.00 15.47     0.161 C 
ATOM     82  C2'  DG D   2      41.266  38.317  28.114  1.00 16.87     0.087 C 
ATOM     83  C1'  DG D   2      40.551  39.624  28.451  1.00 16.11     0.210 C 
ATOM     84  O4'  DG D   2      41.371  40.663  27.901  1.00 18.37    -0.333 OA
ATOM     85  C4'  DG D   2      42.700  40.180  27.609  1.00 18.34     0.175 C 
BRANCH  83  86
ATOM     86  N9   DG D   2      39.223  39.786  27.860  1.00 16.03    -0.272 N 
ATOM     87  C8   DG D   2      38.651  39.040  26.858  1.00 14.57     0.182 A 
ATOM     88  N7   DG D   2      37.481  39.493  26.472  1.00 16.34    -0.217 NA
ATOM     89  C5   DG D   2      37.270  40.617  27.289  1.00 13.99     0.175 A 
ATOM     90  C6   DG D   2      36.182  41.541  27.319  1.00 12.33     0.302 A 
ATOM     91  C4   DG D   2      38.320  40.785  28.175  1.00 12.94     0.172 A 
ATOM     92  O6   DG D   2      35.196  41.541  26.605  1.00 15.71    -0.263 OA
ATOM     93  N1   DG D   2      36.353  42.516  28.277  1.00 12.85    -0.174 NA
ATOM     94  C2   DG D   2      37.432  42.607  29.136  1.00 12.30     0.242 A 
ATOM     95  N2   DG D   2      37.420  43.640  30.060  1.00 15.13    -0.059 NA
ATOM     96  N3   DG D   2      38.474  41.736  29.123  1.00 14.89    -0.195 NA
ENDBRANCH  83  86
BRANCH  85  97
ATOM     97  C5'  DG D   2      43.013  40.353  26.142  1.00 20.11     0.187 C 
BRANCH  97  98
ATOM     98  O5'  DG D   2      42.930  41.724  25.768  1.00 21.44    -0.268 OA
BRANCH  98  99
ATOM     99  P    DG D   2      44.152  42.704  26.003  1.00 23.19     0.410 P 
ATOM    100  OP1  DG D   2      43.578  43.828  26.798  1.00 25.33    -0.624 OA
ATOM    101  OP2  DG D   2      45.366  42.017  26.469  1.00 23.21    -0.624 OA
BRANCH  99 102
ATOM    102  O3'  DC D   1      44.505  43.285  24.554  1.00 26.59    -0.271 OA
BRANCH 102 103
ATOM    103  C3'  DC D   1      45.639  44.130  24.420  1.00 27.88     0.161 C 
ATOM    104  C2'  DC D   1      46.756  43.311  23.804  1.00 26.06     0.087 C 
ATOM    105  C1'  DC D   1      46.298  43.273  22.365  1.00 24.51     0.211 C 
ATOM    106  O4'  DC D   1      45.744  44.572  22.105  1.00 29.50    -0.333 OA
ATOM    107  C4'  DC D   1      45.318  45.160  23.345  1.00 29.48     0.178 C 
BRANCH 105 108
ATOM    108  N1   DC D   1      47.307  43.026  21.327  1.00 21.38    -0.256 N 
ATOM    109  C6   DC D   1      48.233  43.974  20.987  1.00 19.62     0.085 A 
ATOM    110  C5   DC D   1      49.093  43.764  19.970  1.00 19.43     0.060 A 
ATOM    111  C4   DC D   1      49.021  42.501  19.305  1.00 17.00     0.190 A 
ATOM    112  N4   DC D   1      49.853  42.213  18.303  1.00 18.52    -0.127 N 
ATOM    113  N3   DC D   1      48.131  41.561  19.661  1.00 17.32    -0.171 NA
ATOM    114  C2   DC D   1      47.268  41.808  20.657  1.00 18.49     0.353 A 
ATOM    115  O2   DC D   1      46.425  40.969  20.992  1.00 18.51    -0.244 OA
ENDBRANCH 105 108
BRANCH 107 116
ATOM    116  C5'  DC D   1      45.953  46.520  23.531  1.00 31.78     0.214 C 
ATOM    117  O5'  DC D   1      45.111  47.543  22.993  1.00 34.90    -0.218 OA
ENDBRANCH 107 116
ENDBRANCH 102 103
ENDBRANCH  99 102
ENDBRANCH  98  99
ENDBRANCH  97  98
ENDBRANCH  85  97
ENDBRANCH  80  81
ENDBRANCH  77  80
ENDBRANCH  76  77
ENDBRANCH  75  76
ENDBRANCH  71  75
BRANCH  73 118
HETATM  118  N1  BRU D   3      38.907  32.657  31.960  1.00 13.25    -0.255 N 
HETATM  119  C2  BRU D   3      39.329  31.850  30.880  1.00 11.90     0.354 A 
HETATM  120  O2  BRU D   3      40.424  31.962  30.361  1.00 16.11    -0.244 OA
HETATM  121  N3  BRU D   3      38.429  30.929  30.443  1.00 12.15    -0.153 NA
HETATM  122  C4  BRU D   3      37.212  30.707  30.955  1.00 12.48     0.291 A 
HETATM  123  O4  BRU D   3      36.423  29.868  30.476  1.00 16.38    -0.264 OA
HETATM  124  C5  BRU D   3      36.896  31.596  32.019  1.00 14.67     0.110 A 
HETATM  125  C6  BRU D   3      37.718  32.504  32.459  1.00 13.17     0.094 A 
HETATM  126 BR   BRU D   3      34.978  31.446  32.875  1.00 24.07    -0.043 Br
ENDBRANCH  73 118
ENDBRANCH  69  70
ENDBRANCH  66  69
ENDBRANCH  65  66
ENDBRANCH  64  65
ENDBRANCH  60  64
BRANCH  62 127
ATOM    127  N1   DT D   4      43.751  29.500  31.612  1.00 13.98    -0.256 N 
ATOM    128  C2   DT D   4      43.984  28.234  31.151  1.00 13.56     0.354 A 
ATOM    129  O2   DT D   4      45.011  27.960  30.534  1.00 16.57    -0.244 OA
ATOM    130  N3   DT D   4      43.007  27.289  31.440  1.00 12.35    -0.153 NA
ATOM    131  C4   DT D   4      41.836  27.522  32.154  1.00 11.46     0.280 A 
ATOM    132  O4   DT D   4      41.046  26.600  32.414  1.00 13.76    -0.265 OA
ATOM    133  C5   DT D   4      41.637  28.904  32.549  1.00 12.51     0.053 A 
ATOM    134  C7   DT D   4      40.373  29.275  33.251  1.00 14.43     0.038 C 
ATOM    135  C6   DT D   4      42.582  29.806  32.280  1.00 14.14     0.083 A 
ENDBRANCH  62 127
ENDBRANCH  58  59
ENDBRANCH  55  58
ENDBRANCH  54  55
ENDBRANCH  53  54
ENDBRANCH  49  53
BRANCH  51 136
ATOM    136  N9   DA D   5      48.288  37.251  26.663  1.00 14.16    -0.272 N 
ATOM    137  C4   DA D   5      47.915  38.339  27.421  1.00 14.21     0.170 A 
ATOM    138  C5   DA D   5      49.102  38.962  27.778  1.00 12.40     0.155 A 
ATOM    139  N3   DA D   5      46.680  38.722  27.768  1.00 13.46    -0.205 NA
ATOM    140  C6   DA D   5      49.019  40.108  28.567  1.00 12.04     0.206 A 
ATOM    141  N7   DA D   5      50.171  38.300  27.233  1.00 14.47    -0.219 NA
ATOM    142  N6   DA D   5      50.111  40.791  28.963  1.00 12.46    -0.125 N 
ATOM    143  N1   DA D   5      47.789  40.535  28.938  1.00 13.98    -0.202 NA
ATOM    144  C2   DA D   5      46.722  39.819  28.530  1.00 14.25     0.202 A 
ATOM    145  C8   DA D   5      49.637  37.313  26.548  1.00 14.09     0.182 A 
ENDBRANCH  51 136
ENDBRANCH  47  48
ENDBRANCH  44  47
ENDBRANCH  43  44
ENDBRANCH  42  43
ENDBRANCH  38  42
BRANCH  40 146
ATOM    146  N1   DC D   6      42.287  27.949  27.372  1.00 11.89    -0.256 N 
ATOM    147  C2   DC D   6      41.786  26.640  27.480  1.00 11.45     0.353 A 
ATOM    148  O2   DC D   6      42.355  25.761  26.868  1.00 12.57    -0.244 OA
ATOM    149  N3   DC D   6      40.700  26.396  28.259  1.00 11.17    -0.171 NA
ATOM    150  C4   DC D   6      40.146  27.386  28.951  1.00 11.08     0.190 A 
ATOM    151  N4   DC D   6      39.061  27.136  29.703  1.00 10.70    -0.127 N 
ATOM    152  C5   DC D   6      40.682  28.727  28.903  1.00 10.83     0.060 A 
ATOM    153  C6   DC D   6      41.741  28.949  28.105  1.00 11.79     0.085 A 
ENDBRANCH  40 146
ENDBRANCH  36  37
ENDBRANCH  33  36
ENDBRANCH  32  33
ENDBRANCH  31  32
ENDBRANCH  22  31
ENDBRANCH  17  18
ENDBRANCH  14  17
ENDBRANCH  13  14
ENDBRANCH  12  13
ENDBRANCH   8  12
BRANCH  10 154
ATOM    154  N9   DA D   8      40.677  33.566  19.658  1.00 10.83    -0.272 N 
ATOM    155  C4   DA D   8      40.267  32.288  19.945  1.00  9.99     0.170 A 
ATOM    156  N3   DA D   8      39.630  31.423  19.111  1.00 10.21    -0.205 NA
ATOM    157  C5   DA D   8      40.676  32.048  21.238  1.00 10.31     0.155 A 
ATOM    158  C2   DA D   8      39.425  30.270  19.699  1.00 10.39     0.202 A 
ATOM    159  N1   DA D   8      39.756  29.894  20.955  1.00 11.14    -0.202 NA
ATOM    160  C6   DA D   8      40.429  30.764  21.744  1.00 10.09     0.206 A 
ATOM    161  N6   DA D   8      40.843  30.329  22.925  1.00 11.37    -0.125 N 
ATOM    162  N7   DA D   8      41.298  33.189  21.776  1.00 10.47    -0.219 NA
ATOM    163  C8   DA D   8      41.252  34.060  20.792  1.00 11.39     0.182 A 
ENDBRANCH  10 154
ENDBRANCH   6   7
ENDBRANCH   3   6
ENDBRANCH   2   3
ENDBRANCH   1   2
BRANCH   1 164
HETATM  164  C4' BRU D   9      43.985  41.557  18.774  1.00 14.07     0.175 C 
HETATM  165  O4' BRU D   9      44.126  42.950  18.363  1.00 13.32    -0.333 OA
HETATM  166  C1' BRU D   9      43.735  43.800  19.438  1.00 13.84     0.211 C 
HETATM  167  C2' BRU D   9      43.065  42.939  20.488  1.00 12.11     0.087 C 
HETATM  168  C3' BRU D   9      42.879  41.590  19.809  1.00 15.00     0.161 C 
BRANCH 166 169
HETATM  169  N1  BRU D   9      42.727  44.735  18.930  1.00 13.67    -0.255 N 
HETATM  170  C2  BRU D   9      42.547  45.901  19.583  1.00 11.22     0.354 A 
HETATM  171  O2  BRU D   9      43.169  46.157  20.590  1.00 13.50    -0.244 OA
HETATM  172  N3  BRU D   9      41.624  46.771  19.021  1.00 11.85    -0.153 NA
HETATM  173  C4  BRU D   9      40.919  46.530  17.910  1.00 10.30     0.291 A 
HETATM  174  O4  BRU D   9      40.175  47.415  17.409  1.00 12.93    -0.264 OA
HETATM  175  C5  BRU D   9      41.174  45.231  17.347  1.00 12.08     0.110 A 
HETATM  176  C6  BRU D   9      42.032  44.411  17.853  1.00 13.06     0.094 A 
HETATM  177 BR   BRU D   9      40.046  44.920  15.635  1.00 15.13    -0.043 Br
ENDBRANCH 166 169
BRANCH 168 178
HETATM  178  O3' BRU D   9      43.031  40.540  20.754  1.00 13.15    -0.271 OA
BRANCH 178 179
ATOM    179  P    DG D  10      41.724  39.942  21.412  1.00 14.52     0.410 P 
ATOM    180  OP2  DG D  10      40.767  41.002  21.873  1.00 14.92    -0.624 OA
ATOM    181  OP1  DG D  10      41.235  38.867  20.480  1.00 16.08    -0.624 OA
BRANCH 179 182
ATOM    182  O5'  DG D  10      42.242  39.247  22.774  1.00 14.63    -0.268 OA
BRANCH 182 183
ATOM    183  C5'  DG D  10      41.474  38.262  23.445  1.00 14.28     0.187 C 
BRANCH 183 184
ATOM    184  C4'  DG D  10      42.232  36.959  23.467  1.00 14.53     0.175 C 
ATOM    185  C3'  DG D  10      42.503  36.377  24.845  1.00 16.36     0.161 C 
ATOM    186  C2'  DG D  10      43.906  36.891  25.160  1.00 15.07     0.087 C 
ATOM    187  C1'  DG D  10      44.537  36.792  23.789  1.00 13.41     0.210 C 
ATOM    188  O4'  DG D  10      43.532  37.166  22.859  1.00 13.85    -0.333 OA
BRANCH 185 189
ATOM    189  O3'  DG D  10      42.470  34.963  24.642  1.00 20.48    -0.271 OA
BRANCH 189 190
ATOM    190  P    DG D  11      42.018  33.975  25.829  1.00 20.71     0.410 P 
ATOM    191  OP2  DG D  11      41.635  32.618  25.380  1.00 22.10    -0.624 OA
ATOM    192  OP1  DG D  11      43.017  34.160  26.914  1.00 24.32    -0.624 OA
BRANCH 190 193
ATOM    193  O5'  DG D  11      40.679  34.640  26.348  1.00 19.33    -0.268 OA
BRANCH 193 194
ATOM    194  C5'  DG D  11      40.353  34.564  27.731  1.00 18.66     0.187 C 
BRANCH 194 195
ATOM    195  C4'  DG D  11      38.950  34.031  27.875  1.00 18.71     0.175 C 
ATOM    196  C3'  DG D  11      38.095  34.274  26.649  1.00 19.69     0.161 C 
ATOM    197  C2'  DG D  11      37.423  35.600  26.961  1.00 18.26     0.087 C 
ATOM    198  C1'  DG D  11      37.170  35.445  28.456  1.00 15.98     0.210 C 
ATOM    199  O4'  DG D  11      38.214  34.632  28.966  1.00 17.85    -0.333 OA
BRANCH 196 200
ATOM    200  O3'  DG D  11      37.135  33.228  26.671  1.00 24.65    -0.271 OA
BRANCH 200 201
ATOM    201  P    DT D  12      37.458  31.872  25.961  1.00 28.19     0.410 P 
ATOM    202  OP2  DT D  12      38.532  31.958  24.946  1.00 27.85    -0.624 OA
ATOM    203  OP1  DT D  12      37.544  30.913  27.101  1.00 29.91    -0.624 OA
BRANCH 201 204
ATOM    204  O5'  DT D  12      36.164  31.573  25.101  1.00 28.66    -0.268 OA
BRANCH 204 205
ATOM    205  C5'  DT D  12      35.056  32.387  25.316  1.00 29.00     0.187 C 
BRANCH 205 206
ATOM    206  C4'  DT D  12      34.446  32.800  24.016  1.00 28.07     0.175 C 
ATOM    207  C3'  DT D  12      35.142  33.907  23.249  1.00 29.44     0.161 C 
ATOM    208  C2'  DT D  12      34.096  35.012  23.181  1.00 29.37     0.087 C 
ATOM    209  C1'  DT D  12      32.775  34.238  23.306  1.00 27.26     0.211 C 
ATOM    210  O4'  DT D  12      33.066  33.171  24.160  1.00 26.37    -0.333 OA
BRANCH 207 211
ATOM    211  O3'  DT D  12      35.351  33.266  22.018  1.00 31.26    -0.271 OA
BRANCH 211 212
ATOM    212  P    DA D  13      36.794  32.752  21.599  1.00 34.05     0.410 P 
ATOM    213  OP2  DA D  13      37.826  33.531  22.345  1.00 31.89    -0.624 OA
ATOM    214  OP1  DA D  13      36.686  31.297  21.776  1.00 33.32    -0.624 OA
BRANCH 212 215
ATOM    215  O5'  DA D  13      36.774  33.065  20.047  1.00 31.02    -0.268 OA
BRANCH 215 216
ATOM    216  C5'  DA D  13      36.810  34.416  19.590  1.00 27.53     0.187 C 
BRANCH 216 217
ATOM    217  C4'  DA D  13      36.781  34.446  18.083  1.00 25.33     0.175 C 
ATOM    218  O4'  DA D  13      37.335  33.228  17.525  1.00 22.92    -0.333 OA
ATOM    219  C1'  DA D  13      36.377  32.569  16.691  1.00 20.98     0.210 C 
ATOM    220  C2'  DA D  13      35.013  33.162  17.073  1.00 23.30     0.087 C 
ATOM    221  C3'  DA D  13      35.375  34.582  17.485  1.00 26.45     0.161 C 
BRANCH 219 222
ATOM    222  N9   DA D  13      36.514  31.144  16.954  1.00 17.31    -0.272 N 
ATOM    223  C8   DA D  13      35.859  30.424  17.893  1.00 17.58     0.182 A 
ATOM    224  N7   DA D  13      36.262  29.186  17.998  1.00 17.72    -0.219 NA
ATOM    225  C5   DA D  13      37.221  29.063  17.027  1.00 14.33     0.155 A 
ATOM    226  C6   DA D  13      38.028  27.995  16.605  1.00 14.45     0.206 A 
ATOM    227  C4   DA D  13      37.387  30.270  16.355  1.00 15.76     0.170 A 
ATOM    228  N6   DA D  13      38.031  26.755  17.172  1.00 15.52    -0.125 N 
ATOM    229  N1   DA D  13      38.851  28.228  15.583  1.00 14.59    -0.202 NA
ATOM    230  C2   DA D  13      38.913  29.451  15.040  1.00 15.74     0.202 A 
ATOM    231  N3   DA D  13      38.236  30.541  15.367  1.00 15.60    -0.205 NA
ENDBRANCH 219 222
BRANCH 221 232
ATOM    232  O3'  DA D  13      35.450  35.406  16.340  1.00 30.43    -0.271 OA
BRANCH 232 233
ATOM    233  P    DA D  14      34.547  36.717  16.268  1.00 32.07     0.410 P 
ATOM    234  OP2  DA D  14      35.080  37.595  15.237  1.00 33.16    -0.624 OA
ATOM    235  OP1  DA D  14      33.143  36.230  16.195  1.00 33.96    -0.624 OA
BRANCH 233 236
ATOM    236  O5'  DA D  14      34.752  37.345  17.692  1.00 31.87    -0.268 OA
BRANCH 236 237
ATOM    237  C5'  DA D  14      35.590  38.482  17.821  1.00 30.81     0.187 C 
BRANCH 237 238
ATOM    238  C4'  DA D  14      36.966  38.038  18.236  1.00 31.39     0.175 C 
ATOM    239  O4'  DA D  14      37.900  38.235  17.143  1.00 30.66    -0.333 OA
ATOM    240  C1'  DA D  14      38.998  38.983  17.629  1.00 28.20     0.210 C 
ATOM    241  C2'  DA D  14      38.433  39.852  18.734  1.00 29.16     0.087 C 
ATOM    242  C3'  DA D  14      37.524  38.842  19.406  1.00 31.09     0.161 C 
BRANCH 240 243
ATOM    243  N9   DA D  14      39.606  39.680  16.514  1.00 24.41    -0.272 N 
ATOM    244  C4   DA D  14      40.085  39.019  15.418  1.00 21.62     0.170 A 
ATOM    245  N3   DA D  14      40.014  37.689  15.186  1.00 18.94    -0.205 NA
ATOM    246  C5   DA D  14      40.681  39.977  14.642  1.00 22.12     0.155 A 
ATOM    247  C2   DA D  14      40.668  37.383  14.046  1.00 18.83     0.202 A 
ATOM    248  N1   DA D  14      41.270  38.207  13.215  1.00 18.79    -0.202 NA
ATOM    249  C6   DA D  14      41.280  39.545  13.483  1.00 19.52     0.206 A 
ATOM    250  N6   DA D  14      41.845  40.379  12.634  1.00 21.07    -0.125 N 
ATOM    251  N7   DA D  14      40.555  41.241  15.218  1.00 24.53    -0.219 NA
ATOM    252  C8   DA D  14      39.881  41.007  16.319  1.00 24.70     0.182 A 
ENDBRANCH 240 243
BRANCH 242 253
ATOM    253  O3'  DA D  14      38.283  37.930  20.167  1.00 31.14    -0.271 OA
BRANCH 253 254
ATOM    254  P    DC D  15      37.807  37.510  21.644  1.00 30.59     0.410 P 
ATOM    255  OP1  DC D  15      38.764  36.459  22.094  1.00 31.75    -0.624 OA
ATOM    256  OP2  DC D  15      36.332  37.277  21.726  1.00 29.87    -0.624 OA
BRANCH 254 257
ATOM    257  O5'  DC D  15      38.191  38.857  22.422  1.00 30.76    -0.268 OA
BRANCH 257 258
ATOM    258  C5'  DC D  15      37.141  39.748  22.886  1.00 28.28     0.187 C 
BRANCH 258 259
ATOM    259  C4'  DC D  15      37.485  41.199  22.603  1.00 28.15     0.175 C 
ATOM    260  O4'  DC D  15      36.720  41.719  21.492  1.00 23.18    -0.333 OA
ATOM    261  C1'  DC D  15      35.985  42.880  21.880  1.00 22.58     0.211 C 
ATOM    262  C2'  DC D  15      35.981  42.889  23.400  1.00 24.52     0.087 C 
ATOM    263  C3'  DC D  15      37.272  42.174  23.751  1.00 28.37     0.161 C 
BRANCH 261 264
ATOM    264  N1   DC D  15      34.633  42.743  21.332  1.00 18.64    -0.256 N 
ATOM    265  C6   DC D  15      34.264  41.607  20.664  1.00 16.47     0.085 A 
ATOM    266  C5   DC D  15      33.070  41.498  20.090  1.00 15.01     0.060 A 
ATOM    267  C4   DC D  15      32.188  42.639  20.190  1.00 13.33     0.190 A 
ATOM    268  N3   DC D  15      32.516  43.710  20.908  1.00 13.89    -0.171 NA
ATOM    269  N4   DC D  15      31.039  42.639  19.541  1.00 15.28    -0.127 N 
ATOM    270  C2   DC D  15      33.718  43.808  21.480  1.00 18.12     0.353 A 
ATOM    271  O2   DC D  15      34.079  44.818  22.125  1.00 20.47    -0.244 OA
ENDBRANCH 261 264
BRANCH 263 272
ATOM    272  O3'  DC D  15      38.328  43.123  23.782  1.00 31.34    -0.271 OA
BRANCH 272 273
ATOM    273  P    DG D  16      39.423  43.019  24.924  1.00 32.78     0.410 P 
ATOM    274  OP1  DG D  16      39.850  41.592  24.996  1.00 34.59    -0.624 OA
ATOM    275  OP2  DG D  16      38.861  43.688  26.125  1.00 31.45    -0.624 OA
BRANCH 273 276
ATOM    276  O5'  DG D  16      40.606  43.914  24.368  1.00 31.83    -0.268 OA
BRANCH 276 277
ATOM    277  C5'  DG D  16      40.886  45.183  24.936  1.00 31.48     0.187 C 
BRANCH 277 278
ATOM    278  C4'  DG D  16      40.617  46.260  23.916  1.00 29.56     0.178 C 
ATOM    279  C3'  DG D  16      39.274  46.982  24.084  1.00 29.50     0.186 C 
ATOM    280  C2'  DG D  16      38.410  46.343  23.006  1.00 28.21     0.090 C 
ATOM    281  O3'  DG D  16      39.451  48.374  23.736  1.00 31.52    -0.221 OA
ATOM    282  C1'  DG D  16      39.438  46.161  21.922  1.00 24.75     0.210 C 
ATOM    283  O4'  DG D  16      40.582  45.683  22.593  1.00 27.49    -0.333 OA
BRANCH 282 284
ATOM    284  N9   DG D  16      39.101  45.201  20.886  1.00 21.33    -0.271 N 
ATOM    285  C4   DG D  16      38.198  45.399  19.882  1.00 19.88     0.188 A 
ATOM    286  N3   DG D  16      37.492  46.542  19.661  1.00 18.33    -0.038 NA
ATOM    287  C5   DG D  16      38.167  44.215  19.181  1.00 17.85     0.176 A 
ATOM    288  C2   DG D  16      36.694  46.438  18.637  1.00 15.82     0.773 A 
ATOM    289  N1   DG D  16      36.571  45.277  17.884  1.00 16.33    -0.016 NA
ATOM    290  N2   DG D  16      35.934  47.511  18.246  1.00 16.23     0.062 N 
ATOM    291  C6   DG D  16      37.287  44.102  18.088  1.00 15.94     0.316 A 
ATOM    292  O6   DG D  16      37.079  43.118  17.325  1.00 18.70    -0.263 OA
ATOM    293  N7   DG D  16      39.080  43.311  19.711  1.00 18.48    -0.217 NA
ATOM    294  C8   DG D  16      39.601  43.937  20.729  1.00 19.50     0.182 A 
ENDBRANCH 282 284
ENDBRANCH 277 278
ENDBRANCH 276 277
ENDBRANCH 273 276
ENDBRANCH 272 273
ENDBRANCH 263 272
ENDBRANCH 258 259
ENDBRANCH 257 258
ENDBRANCH 254 257
ENDBRANCH 253 254
ENDBRANCH 242 253
ENDBRANCH 237 238
ENDBRANCH 236 237
ENDBRANCH 233 236
ENDBRANCH 232 233
ENDBRANCH 221 232
ENDBRANCH 216 217
ENDBRANCH 215 216
ENDBRANCH 212 215
ENDBRANCH 211 212
ENDBRANCH 207 211
BRANCH 209 295
ATOM    295  N1   DT D  12      31.647  34.942  23.927  1.00 25.54    -0.256 N 
ATOM    296  C6   DT D  12      31.677  36.308  24.123  1.00 22.97     0.083 A 
ATOM    297  C5   DT D  12      30.700  36.990  24.753  1.00 22.23     0.053 A 
ATOM    298  C4   DT D  12      29.568  36.251  25.237  1.00 20.03     0.280 A 
ATOM    299  C7   DT D  12      30.714  38.469  24.969  1.00 23.27     0.038 C 
ATOM    300  O4   DT D  12      28.640  36.775  25.848  1.00 18.53    -0.265 OA
ATOM    301  N3   DT D  12      29.580  34.880  24.975  1.00 19.51    -0.153 NA
ATOM    302  C2   DT D  12      30.568  34.176  24.341  1.00 22.25     0.354 A 
ATOM    303  O2   DT D  12      30.510  32.965  24.158  1.00 24.24    -0.244 OA
ENDBRANCH 209 295
ENDBRANCH 205 206
ENDBRANCH 204 205
ENDBRANCH 201 204
ENDBRANCH 200 201
ENDBRANCH 196 200
BRANCH 198 304
ATOM    304  N9   DG D  11      37.193  36.681  29.232  1.00 15.12    -0.271 N 
ATOM    305  C8   DG D  11      38.165  37.097  30.111  1.00 13.13     0.182 A 
ATOM    306  N7   DG D  11      37.849  38.200  30.738  1.00 13.46    -0.217 NA
ATOM    307  C5   DG D  11      36.592  38.530  30.244  1.00 11.37     0.176 A 
ATOM    308  C6   DG D  11      35.751  39.601  30.587  1.00 10.16     0.316 A 
ATOM    309  C4   DG D  11      36.181  37.627  29.293  1.00 12.33     0.188 A 
ATOM    310  O6   DG D  11      35.928  40.436  31.447  1.00 10.86    -0.263 OA
ATOM    311  N1   DG D  11      34.585  39.604  29.807  1.00 10.07    -0.016 NA
ATOM    312  C2   DG D  11      34.266  38.650  28.843  1.00 11.41     0.773 A 
ATOM    313  N2   DG D  11      33.107  38.816  28.140  1.00 10.83     0.062 N 
ATOM    314  N3   DG D  11      35.037  37.612  28.572  1.00 11.83    -0.038 NA
ENDBRANCH 198 304
ENDBRANCH 194 195
ENDBRANCH 193 194
ENDBRANCH 190 193
ENDBRANCH 189 190
ENDBRANCH 185 189
BRANCH 187 315
ATOM    315  N9   DG D  10      45.665  37.698  23.631  1.00 11.23    -0.271 N 
ATOM    316  C8   DG D  10      45.868  38.916  24.254  1.00 12.20     0.182 A 
ATOM    317  N7   DG D  10      47.034  39.450  23.953  1.00 12.66    -0.217 NA
ATOM    318  C5   DG D  10      47.602  38.546  23.062  1.00 10.47     0.176 A 
ATOM    319  C4   DG D  10      46.770  37.470  22.851  1.00 10.52     0.188 A 
ATOM    320  C6   DG D  10      48.866  38.580  22.358  1.00 11.39     0.316 A 
ATOM    321  N3   DG D  10      46.969  36.405  22.051  1.00 10.98    -0.038 NA
ATOM    322  C2   DG D  10      48.157  36.436  21.457  1.00  8.78     0.773 A 
ATOM    323  N1   DG D  10      49.057  37.460  21.584  1.00  9.45    -0.016 NA
ATOM    324  N2   DG D  10      48.552  35.423  20.693  1.00 10.60     0.062 N 
ATOM    325  O6   DG D  10      49.746  39.473  22.358  1.00 10.46    -0.263 OA
ENDBRANCH 187 315
ENDBRANCH 183 184
ENDBRANCH 182 183
ENDBRANCH 179 182
ENDBRANCH 178 179
ENDBRANCH 168 178
ENDBRANCH   1 164
TORSDOF 92
ENDMDL
MODEL 2
REMARK VINA RESULT:      -0.4      3.323     10.552
REMARK WARNING: 32 MAX_TORS EXCEEDED!!!
REMARK  92 active torsions:
REMARK  status: ('A' for Active; 'I' for Inactive)
REMARK    1  A    between atoms: C5'_1  and  C4'_3 
REMARK    2  A    between atoms: C3'_5  and  O3'_6 
REMARK    3  A    between atoms: O3'_6  and  P_17 
REMARK    4  A    between atoms: C1'_8  and  N1_9 
REMARK    5  A    between atoms: P_17  and  O5'_19 
REMARK    6  A    between atoms: C5'_18  and  O5'_19 
REMARK    7  A    between atoms: C5'_18  and  C4'_20 
REMARK    8  A    between atoms: C3'_22  and  O3'_23 
REMARK    9  A    between atoms: O3'_23  and  P_39 
REMARK   10  A    between atoms: C1'_25  and  N9_36 
REMARK   11  A    between atoms: P_39  and  O5'_41 
REMARK   12  A    between atoms: C5'_40  and  O5'_41 
REMARK   13  A    between atoms: C5'_40  and  C4'_42 
REMARK   14  A    between atoms: C3'_44  and  O3'_45 
REMARK   15  A    between atoms: O3'_45  and  P_59 
REMARK   16  A    between atoms: C1'_47  and  N1_48 
REMARK   17  A    between atoms: P_59  and  O5'_61 
REMARK   18  A    between atoms: C5'_60  and  C4'_62 
REMARK   19  A    between atoms: C5'_60  and  O5'_61 
REMARK   20  A    between atoms: C3'_64  and  O3'_65 
REMARK   21  A    between atoms: O3'_65  and  P_79 
REMARK   22  A    between atoms: C1'_67  and  N1_68 
REMARK   23  A    between atoms: P_79  and  O5'_81 
REMARK   24  A    between atoms: C5'_80  and  C4'_82 
REMARK   25  A    between atoms: C5'_80  and  O5'_81 
REMARK   26  A    between atoms: C3'_84  and  O3'_85 
REMARK   27  A    between atoms: O3'_85  and  P_100 
REMARK   28  A    between atoms: C1'_87  and  N9_97 
REMARK   29  A    between atoms: P_100  and  O5'_102 
REMARK   30  A    between atoms: C5'_101  and  C4'_103 
REMARK   31  A    between atoms: C5'_101  and  O5'_102 
REMARK   32  A    between atoms: C3'_105  and  O3'_106 
REMARK   33  A    between atoms: O3'_106  and  P_119 
REMARK   34  A    between atoms: C1'_108  and  N1_109 
REMARK   35  A    between atoms: P_119  and  O5'_121 
REMARK   36  A    between atoms: C5'_120  and  O5'_121 
REMARK   37  A    between atoms: C5'_120  and  C4'_122 
REMARK   38  A    between atoms: C3'_124  and  O3'_125 
REMARK   39  A    between atoms: O3'_125  and  P_138 
REMARK   40  A    between atoms: C1'_127  and  N1_128 
REMARK   41  A    between atoms: P_138  and  O5'_140 
REMARK   42  A    between atoms: C5'_139  and  C4'_141 
REMARK   43  A    between atoms: C5'_139  and  O5'_140 
REMARK   44  A    between atoms: C3'_143  and  O3'_144 
REMARK   45  A    between atoms: O3'_144  and  P_159 
REMARK   46  A    between atoms: C1'_146  and  N9_156 
REMARK   47  A    between atoms: P_159  and  O5'_161 
REMARK   48  A    between atoms: C5'_160  and  O5'_161 
REMARK   49  A    between atoms: C5'_160  and  C4'_162 
REMARK   50  A    between atoms: C3'_164  and  O3'_165 
REMARK   51  A    between atoms: O3'_165  and  P_179 
REMARK   52  A    between atoms: C1'_167  and  N1_168 
REMARK   53  A    between atoms: P_179  and  O5'_181 
REMARK   54  A    between atoms: C5'_180  and  C4'_182 
REMARK   55  A    between atoms: C5'_180  and  O5'_181 
REMARK   56  A    between atoms: C3'_184  and  O3'_185 
REMARK   57  A    between atoms: O3'_185  and  P_201 
REMARK   58  A    between atoms: C1'_187  and  N9_198 
REMARK   59  A    between atoms: P_201  and  O5'_203 
REMARK   60  A    between atoms: C5'_202  and  O5'_203 
REMARK   61  A    between atoms: C5'_202  and  C4'_204 
REMARK   62  A    between atoms: C3'_206  and  O3'_207 
REMARK   63  A    between atoms: O3'_207  and  P_223 
REMARK   64  A    between atoms: C1'_209  and  N9_220 
REMARK   65  A    between atoms: P_223  and  O5'_225 
REMARK   66  A    between atoms: C5'_224  and  O5'_225 
REMARK   67  A    between atoms: C5'_224  and  C4'_226 
REMARK   68  A    between atoms: C3'_228  and  O3'_229 
REMARK   69  A    between atoms: O3'_229  and  P_243 
REMARK   70  A    between atoms: C1'_231  and  N1_232 
REMARK   71  A    between atoms: P_243  and  O5'_245 
REMARK   72  A    between atoms: C5'_244  and  C4'_246 
REMARK   73  A    between atoms: C5'_244  and  O5'_245 
REMARK   74  A    between atoms: C3'_248  and  O3'_249 
REMARK   75  A    between atoms: O3'_249  and  P_264 
REMARK   76  A    between atoms: C1'_251  and  N9_261 
REMARK   77  A    between atoms: P_264  and  O5'_266 
REMARK   78  A    between atoms: C5'_265  and  C4'_267 
REMARK   79  A    between atoms: C5'_265  and  O5'_266 
REMARK   80  A    between atoms: C3'_269  and  O3'_270 
REMARK   81  A    between atoms: O3'_270  and  P_285 
REMARK   82  A    between atoms: C1'_272  and  N9_282 
REMARK   83  A    between atoms: P_285  and  O5'_287 
REMARK   84  A    between atoms: C5'_286  and  O5'_287 
REMARK   85  A    between atoms: C5'_286  and  C4'_288 
REMARK   86  A    between atoms: C3'_290  and  O3'_291 
REMARK   87  A    between atoms: O3'_291  and  P_304 
REMARK   88  A    between atoms: C1'_293  and  N1_294 
REMARK   89  A    between atoms: P_304  and  O5'_306 
REMARK   90  A    between atoms: C5'_305  and  C4'_307 
REMARK   91  A    between atoms: C5'_305  and  O5'_306 
REMARK   92  A    between atoms: C1'_312  and  N9_323 
ROOT
HETATM    1  C5' BRU D   9      43.269  44.277  13.617  1.00 14.48     0.187 C 
ENDROOT
BRANCH   1   2
HETATM    2  O5' BRU D   9      43.411  42.970  14.139  1.00 12.82    -0.268 OA
BRANCH   2   3
HETATM    3  P   BRU D   9      44.845  42.402  14.492  1.00 11.11     0.410 P 
HETATM    4  OP1 BRU D   9      45.602  42.087  13.225  1.00 14.53    -0.624 OA
HETATM    5  OP2 BRU D   9      45.405  43.388  15.455  1.00 12.75    -0.624 OA
BRANCH   3   6
ATOM      6  O3'  DA D   8      44.528  40.975  15.104  1.00 11.43    -0.271 OA
BRANCH   6   7
ATOM      7  C3'  DA D   8      45.558  40.276  15.775  1.00 10.57     0.161 C 
ATOM      8  C4'  DA D   8      45.306  38.777  15.651  1.00 11.52     0.175 C 
ATOM      9  O4'  DA D   8      45.884  38.195  16.832  1.00 11.40    -0.333 OA
ATOM     10  C1'  DA D   8      46.000  39.186  17.866  1.00 11.23     0.210 C 
ATOM     11  C2'  DA D   8      45.503  40.505  17.277  1.00 12.23     0.087 C 
BRANCH   8  12
ATOM     12  C5'  DA D   8      45.898  38.109  14.436  1.00 13.06     0.187 C 
BRANCH  12  13
ATOM     13  O5'  DA D   8      44.987  37.187  13.892  1.00 11.03    -0.268 OA
BRANCH  13  14
ATOM     14  P    DA D   8      44.998  35.662  14.417  1.00 12.25     0.410 P 
ATOM     15  OP2  DA D   8      46.351  35.446  15.043  1.00 11.74    -0.624 OA
ATOM     16  OP1  DA D   8      44.550  34.761  13.344  1.00 15.55    -0.624 OA
BRANCH  14  17
ATOM     17  O3'  DC D   7      43.881  35.617  15.562  1.00 12.10    -0.271 OA
BRANCH  17  18
ATOM     18  C3'  DC D   7      44.139  34.865  16.765  1.00 11.74     0.161 C 
ATOM     19  C2'  DC D   7      43.764  35.613  18.043  1.00 11.76     0.087 C 
ATOM     20  C1'  DC D   7      43.450  34.477  19.022  1.00 12.42     0.211 C 
ATOM     21  O4'  DC D   7      43.089  33.355  18.223  1.00 12.34    -0.333 OA
ATOM     22  C4'  DC D   7      43.200  33.680  16.809  1.00 11.56     0.175 C 
BRANCH  20  23
ATOM     23  N1   DC D   7      44.697  34.111  19.733  1.00 11.09    -0.256 N 
ATOM     24  C2   DC D   7      44.968  34.781  20.928  1.00  9.80     0.353 A 
ATOM     25  O2   DC D   7      44.162  35.668  21.263  1.00 10.91    -0.244 OA
ATOM     26  N3   DC D   7      46.065  34.476  21.663  1.00  9.76    -0.171 NA
ATOM     27  C4   DC D   7      46.923  33.571  21.222  1.00 11.68     0.190 A 
ATOM     28  N4   DC D   7      48.023  33.294  21.979  1.00 10.83    -0.127 N 
ATOM     29  C5   DC D   7      46.700  32.871  19.970  1.00 10.32     0.060 A 
ATOM     30  C6   DC D   7      45.576  33.174  19.266  1.00 11.95     0.085 A 
ENDBRANCH  20  23
BRANCH  22  31
ATOM     31  C5'  DC D   7      43.663  32.466  16.053  1.00 14.18     0.187 C 
BRANCH  31  32
ATOM     32  O5'  DC D   7      42.526  31.869  15.415  1.00 16.43    -0.268 OA
BRANCH  32  33
ATOM     33  P    DC D   7      42.198  30.340  15.691  1.00 18.54     0.410 P 
ATOM     34  OP1  DC D   7      40.773  30.154  15.458  1.00 22.71    -0.624 OA
ATOM     35  OP2  DC D   7      43.205  29.561  14.975  1.00 19.79    -0.624 OA
BRANCH  33  36
ATOM     36  O3'  DC D   6      42.337  30.251  17.297  1.00 17.13    -0.271 OA
BRANCH  36  37
ATOM     37  C3'  DC D   6      43.125  29.245  17.892  1.00 14.94     0.161 C 
ATOM     38  C4'  DC D   6      42.229  28.487  18.865  1.00 15.77     0.175 C 
ATOM     39  O4'  DC D   6      42.459  29.108  20.142  1.00 13.81    -0.333 OA
ATOM     40  C1'  DC D   6      43.259  30.242  19.961  1.00 12.86     0.211 C 
ATOM     41  C2'  DC D   6      44.151  29.904  18.794  1.00 14.65     0.087 C 
BRANCH  38  42
ATOM     42  C5'  DC D   6      42.547  27.013  18.937  1.00 18.13     0.187 C 
BRANCH  42  43
ATOM     43  O5'  DC D   6      41.403  26.262  18.543  1.00 19.27    -0.268 OA
BRANCH  43  44
ATOM     44  P    DC D   6      41.124  24.817  19.180  1.00 19.84     0.410 P 
ATOM     45  OP1  DC D   6      40.740  23.962  18.027  1.00 24.35    -0.624 OA
ATOM     46  OP2  DC D   6      42.276  24.453  20.004  1.00 20.92    -0.624 OA
BRANCH  44  47
ATOM     47  O3'  DA D   5      39.809  25.085  20.036  1.00 19.93    -0.271 OA
BRANCH  47  48
ATOM     48  C3'  DA D   5      39.602  26.349  20.665  1.00 16.89     0.161 C 
ATOM     49  C4'  DA D   5      40.207  26.223  22.060  1.00 17.32     0.175 C 
ATOM     50  O4'  DA D   5      39.129  25.815  22.909  1.00 18.24    -0.333 OA
ATOM     51  C1'  DA D   5      37.892  25.812  22.172  1.00 15.77     0.210 C 
ATOM     52  C2'  DA D   5      38.127  26.642  20.928  1.00 16.34     0.087 C 
BRANCH  49  53
ATOM     53  C5'  DA D   5      40.918  27.457  22.570  1.00 17.61     0.187 C 
BRANCH  53  54
ATOM     54  O5'  DA D   5      42.224  27.104  23.019  1.00 19.33    -0.268 OA
BRANCH  54  55
ATOM     55  P    DA D   5      42.745  27.628  24.416  1.00 20.74     0.410 P 
ATOM     56  OP2  DA D   5      42.743  29.109  24.467  1.00 23.47    -0.624 OA
ATOM     57  OP1  DA D   5      43.998  26.862  24.718  1.00 23.99    -0.624 OA
BRANCH  55  58
ATOM     58  O3'  DT D   4      41.662  27.014  25.444  1.00 19.59    -0.271 OA
BRANCH  58  59
ATOM     59  C3'  DT D   4      40.631  27.838  26.030  1.00 18.10     0.161 C 
ATOM     60  C4'  DT D   4      40.984  28.066  27.509  1.00 15.82     0.175 C 
ATOM     61  O4'  DT D   4      40.129  27.195  28.271  1.00 16.38    -0.333 OA
ATOM     62  C1'  DT D   4      39.374  26.336  27.421  1.00 15.63     0.211 C 
ATOM     63  C2'  DT D   4      39.290  27.103  26.090  1.00 16.56     0.087 C 
BRANCH  60  64
ATOM     64  C5'  DT D   4      40.789  29.471  28.041  1.00 17.08     0.187 C 
BRANCH  64  65
ATOM     65  O5'  DT D   4      41.874  30.318  27.610  1.00 15.07    -0.268 OA
BRANCH  65  66
ATOM     66  P    DT D   4      41.559  31.733  26.944  1.00 15.11     0.410 P 
ATOM     67  OP1  DT D   4      40.462  32.413  27.741  1.00 18.00    -0.624 OA
ATOM     68  OP2  DT D   4      42.885  32.403  26.790  1.00 17.03    -0.624 OA
BRANCH  66  69
HETATM   69  O3' BRU D   3      40.894  31.332  25.587  1.00 15.24    -0.271 OA
BRANCH  69  70
HETATM   70  C3' BRU D   3      39.656  31.911  25.157  1.00 13.22     0.161 C 
HETATM   71  C4' BRU D   3      38.717  30.713  25.023  1.00 14.89     0.175 C 
HETATM   72  O4' BRU D   3      38.087  30.825  23.733  1.00 16.05    -0.333 OA
HETATM   73  C1' BRU D   3      39.024  31.463  22.872  1.00 15.34     0.211 C 
HETATM   74  C2' BRU D   3      39.641  32.552  23.762  1.00 12.90     0.087 C 
BRANCH  71  75
HETATM   75  C5' BRU D   3      37.706  30.456  26.111  1.00 17.61     0.187 C 
BRANCH  75  76
HETATM   76  O5' BRU D   3      36.883  31.585  26.327  1.00 15.66    -0.268 OA
BRANCH  76  77
HETATM   77  P   BRU D   3      35.301  31.362  26.294  1.00 16.77     0.410 P 
HETATM   78  OP1 BRU D   3      34.916  31.304  24.854  1.00 18.57    -0.624 OA
HETATM   79  OP2 BRU D   3      34.945  30.253  27.222  1.00 18.18    -0.624 OA
BRANCH  77  80
ATOM     80  O3'  DG D   2      34.693  32.711  26.881  1.00 17.32    -0.271 OA
BRANCH  80  81
ATOM     81  C3'  DG D   2      33.690  32.687  27.884  1.00 15.47     0.161 C 
ATOM     82  C2'  DG D   2      33.641  34.042  28.604  1.00 16.87     0.087 C 
ATOM     83  C1'  DG D   2      32.905  34.916  27.590  1.00 16.11     0.210 C 
ATOM     84  O4'  DG D   2      32.003  34.035  26.908  1.00 18.37    -0.333 OA
ATOM     85  C4'  DG D   2      32.374  32.653  27.106  1.00 18.34     0.175 C 
BRANCH  83  86
ATOM     86  N9   DG D   2      32.088  35.988  28.157  1.00 16.03    -0.272 N 
ATOM     87  C8   DG D   2      31.282  35.932  29.269  1.00 14.57     0.182 A 
ATOM     88  N7   DG D   2      30.594  37.032  29.471  1.00 16.34    -0.217 NA
ATOM     89  C5   DG D   2      30.986  37.872  28.414  1.00 13.99     0.175 A 
ATOM     90  C6   DG D   2      30.560  39.193  28.083  1.00 12.33     0.302 A 
ATOM     91  C4   DG D   2      31.935  37.252  27.620  1.00 12.94     0.172 A 
ATOM     92  O6   DG D   2      29.731  39.868  28.666  1.00 15.71    -0.263 OA
ATOM     93  N1   DG D   2      31.191  39.678  26.958  1.00 12.85    -0.174 NA
ATOM     94  C2   DG D   2      32.142  38.996  26.224  1.00 12.30     0.242 A 
ATOM     95  N2   DG D   2      32.695  39.655  25.136  1.00 15.13    -0.059 NA
ATOM     96  N3   DG D   2      32.561  37.740  26.526  1.00 14.89    -0.195 NA
ENDBRANCH  83  86
BRANCH  85  97
ATOM     97  C5'  DG D   2      31.244  31.893  27.758  1.00 20.11     0.187 C 
BRANCH  97  98
ATOM     98  O5'  DG D   2      31.552  30.507  27.844  1.00 21.44    -0.268 OA
BRANCH  98  99
ATOM     99  P    DG D   2      31.535  29.757  29.239  1.00 23.19     0.410 P 
ATOM    100  OP1  DG D   2      30.211  30.103  29.830  1.00 25.33    -0.624 OA
ATOM    101  OP2  DG D   2      31.957  28.351  29.149  1.00 23.21    -0.624 OA
BRANCH  99 102
ATOM    102  O3'  DC D   1      32.650  30.494  30.121  1.00 26.59    -0.271 OA
BRANCH 102 103
ATOM    103  C3'  DC D   1      32.415  30.655  31.514  1.00 27.88     0.161 C 
ATOM    104  C2'  DC D   1      33.745  30.510  32.227  1.00 26.06     0.087 C 
ATOM    105  C1'  DC D   1      34.363  31.854  31.917  1.00 24.51     0.211 C 
ATOM    106  O4'  DC D   1      33.282  32.797  31.989  1.00 29.50    -0.333 OA
ATOM    107  C4'  DC D   1      32.042  32.113  31.749  1.00 29.48     0.178 C 
BRANCH 105 108
ATOM    108  N1   DC D   1      35.418  32.348  32.809  1.00 21.38    -0.256 N 
ATOM    109  C6   DC D   1      36.025  31.531  33.725  1.00 19.62     0.085 A 
ATOM    110  C5   DC D   1      36.927  32.024  34.598  1.00 19.43     0.060 A 
ATOM    111  C4   DC D   1      37.248  33.413  34.490  1.00 17.00     0.190 A 
ATOM    112  N4   DC D   1      38.146  33.967  35.306  1.00 18.52    -0.127 N 
ATOM    113  N3   DC D   1      36.673  34.205  33.571  1.00 17.32    -0.171 NA
ATOM    114  C2   DC D   1      35.757  33.695  32.735  1.00 18.49     0.353 A 
ATOM    115  O2   DC D   1      35.198  34.406  31.894  1.00 18.51    -0.244 OA
ENDBRANCH 105 108
BRANCH 107 116
ATOM    116  C5'  DC D   1      31.072  32.364  32.883  1.00 31.78     0.214 C 
ATOM    117  O5'  DC D   1      30.685  31.129  33.493  1.00 34.90    -0.218 OA
ENDBRANCH 107 116
ENDBRANCH 102 103
ENDBRANCH  99 102
ENDBRANCH  98  99
ENDBRANCH  97  98
ENDBRANCH  85  97
ENDBRANCH  80  81
ENDBRANCH  77  80
ENDBRANCH  76  77
ENDBRANCH  75  76
ENDBRANCH  71  75
BRANCH  73 118
HETATM  118  N1  BRU D   3      38.288  31.984  21.718  1.00 13.25    -0.255 N 
HETATM  119  C2  BRU D   3      38.702  31.665  20.406  1.00 11.90     0.354 A 
HETATM  120  O2  BRU D   3      39.684  30.987  20.170  1.00 16.11    -0.244 OA
HETATM  121  N3  BRU D   3      37.932  32.167  19.404  1.00 12.15    -0.153 NA
HETATM  122  C4  BRU D   3      36.821  32.901  19.551  1.00 12.48     0.291 A 
HETATM  123  O4  BRU D   3      36.185  33.362  18.582  1.00 16.38    -0.264 OA
HETATM  124  C5  BRU D   3      36.522  33.173  20.915  1.00 14.67     0.110 A 
HETATM  125  C6  BRU D   3      37.240  32.728  21.905  1.00 13.17     0.094 A 
HETATM  126 BR   BRU D   3      34.860  34.399  21.320  1.00 24.07    -0.043 Br
ENDBRANCH  73 118
ENDBRANCH  69  70
ENDBRANCH  66  69
ENDBRANCH  65  66
ENDBRANCH  64  65
ENDBRANCH  60  64
BRANCH  62 127
ATOM    127  N1   DT D   4      38.104  26.044  28.145  1.00 13.98    -0.256 N 
ATOM    128  C2   DT D   4      37.718  24.740  28.284  1.00 13.56     0.354 A 
ATOM    129  O2   DT D   4      38.368  23.826  27.780  1.00 16.57    -0.244 OA
ATOM    130  N3   DT D   4      36.574  24.518  29.041  1.00 12.35    -0.153 NA
ATOM    131  C4   DT D   4      35.806  25.499  29.662  1.00 11.46     0.280 A 
ATOM    132  O4   DT D   4      34.829  25.201  30.368  1.00 13.76    -0.265 OA
ATOM    133  C5   DT D   4      36.248  26.857  29.408  1.00 12.51     0.053 A 
ATOM    134  C7   DT D   4      35.446  27.987  29.963  1.00 14.43     0.038 C 
ATOM    135  C6   DT D   4      37.354  27.066  28.691  1.00 14.14     0.083 A 
ENDBRANCH  62 127
ENDBRANCH  58  59
ENDBRANCH  55  58
ENDBRANCH  54  55
ENDBRANCH  53  54
ENDBRANCH  49  53
BRANCH  51 136
ATOM    136  N9   DA D   5      36.899  26.361  23.106  1.00 14.16    -0.272 N 
ATOM    137  C4   DA D   5      36.221  25.643  24.066  1.00 14.21     0.170 A 
ATOM    138  C5   DA D   5      35.567  26.591  24.840  1.00 12.40     0.155 A 
ATOM    139  N3   DA D   5      36.199  24.317  24.248  1.00 13.46    -0.205 NA
ATOM    140  C6   DA D   5      34.798  26.135  25.909  1.00 12.04     0.206 A 
ATOM    141  N7   DA D   5      35.806  27.851  24.355  1.00 14.47    -0.219 NA
ATOM    142  N6   DA D   5      34.118  26.972  26.717  1.00 12.46    -0.125 N 
ATOM    143  N1   DA D   5      34.742  24.800  26.126  1.00 13.98    -0.202 NA
ATOM    144  C2   DA D   5      35.444  23.996  25.302  1.00 14.25     0.202 A 
ATOM    145  C8   DA D   5      36.571  27.661  23.303  1.00 14.09     0.182 A 
ENDBRANCH  51 136
ENDBRANCH  47  48
ENDBRANCH  44  47
ENDBRANCH  43  44
ENDBRANCH  42  43
ENDBRANCH  38  42
BRANCH  40 146
ATOM    146  N1   DC D   6      43.924  30.568  21.256  1.00 11.89    -0.256 N 
ATOM    147  C2   DC D   6      43.387  31.626  22.010  1.00 11.45     0.353 A 
ATOM    148  O2   DC D   6      42.347  32.123  21.632  1.00 12.57    -0.244 OA
ATOM    149  N3   DC D   6      44.032  32.053  23.128  1.00 11.17    -0.171 NA
ATOM    150  C4   DC D   6      45.140  31.438  23.527  1.00 11.08     0.190 A 
ATOM    151  N4   DC D   6      45.780  31.881  24.623  1.00 10.70    -0.127 N 
ATOM    152  C5   DC D   6      45.676  30.309  22.802  1.00 10.83     0.060 A 
ATOM    153  C6   DC D   6      45.035  29.922  21.685  1.00 11.79     0.085 A 
ENDBRANCH  40 146
ENDBRANCH  36  37
ENDBRANCH  33  36
ENDBRANCH  32  33
ENDBRANCH  31  32
ENDBRANCH  22  31
ENDBRANCH  17  18
ENDBRANCH  14  17
ENDBRANCH  13  14
ENDBRANCH  12  13
ENDBRANCH   8  12
BRANCH  10 154
ATOM    154  N9   DA D   8      47.422  39.300  18.190  1.00 10.83    -0.272 N 
ATOM    155  C4   DA D   8      48.109  38.380  18.942  1.00  9.99     0.170 A 
ATOM    156  N3   DA D   8      47.613  37.249  19.512  1.00 10.21    -0.205 NA
ATOM    157  C5   DA D   8      49.415  38.817  18.961  1.00 10.31     0.155 A 
ATOM    158  C2   DA D   8      48.558  36.579  20.124  1.00 10.39     0.202 A 
ATOM    159  N1   DA D   8      49.870  36.886  20.238  1.00 11.14    -0.202 NA
ATOM    160  C6   DA D   8      50.340  37.995  19.622  1.00 10.09     0.206 A 
ATOM    161  N6   DA D   8      51.647  38.208  19.651  1.00 11.37    -0.125 N 
ATOM    162  N7   DA D   8      49.537  40.032  18.264  1.00 10.47    -0.219 NA
ATOM    163  C8   DA D   8      48.314  40.272  17.844  1.00 11.39     0.182 A 
ENDBRANCH  10 154
ENDBRANCH   6   7
ENDBRANCH   3   6
ENDBRANCH   2   3
ENDBRANCH   1   2
BRANCH   1 164
HETATM  164  C4' BRU D   9      42.143  45.003  14.319  1.00 14.07     0.175 C 
HETATM  165  O4' BRU D   9      40.942  44.927  13.494  1.00 13.32    -0.333 OA
HETATM  166  C1' BRU D   9      39.791  44.999  14.330  1.00 13.84     0.211 C 
HETATM  167  C2' BRU D   9      40.252  44.847  15.764  1.00 12.11     0.087 C 
HETATM  168  C3' BRU D   9      41.710  44.428  15.652  1.00 15.00     0.161 C 
BRANCH 166 169
HETATM  169  N1  BRU D   9      38.936  43.849  14.020  1.00 13.67    -0.255 N 
HETATM  170  C2  BRU D   9      37.738  44.078  13.445  1.00 11.22     0.354 A 
HETATM  171  O2  BRU D   9      37.354  45.205  13.226  1.00 13.50    -0.244 OA
HETATM  172  N3  BRU D   9      36.999  42.949  13.120  1.00 11.85    -0.153 NA
HETATM  173  C4  BRU D   9      37.387  41.688  13.341  1.00 10.30     0.291 A 
HETATM  174  O4  BRU D   9      36.703  40.716  12.924  1.00 12.93    -0.264 OA
HETATM  175  C5  BRU D   9      38.660  41.594  14.005  1.00 12.08     0.110 A 
HETATM  176  C6  BRU D   9      39.363  42.632  14.310  1.00 13.06     0.094 A 
HETATM  177 BR   BRU D   9      39.197  39.617  14.323  1.00 15.13    -0.043 Br
ENDBRANCH 166 169
BRANCH 168 178
HETATM  178  O3' BRU D   9      42.465  44.984  16.719  1.00 13.15    -0.271 OA
BRANCH 178 179
ATOM    179  P    DG D  10      42.609  44.134  18.045  1.00 14.52     0.410 P 
ATOM    180  OP2  DG D  10      41.500  44.389  19.022  1.00 14.92    -0.624 OA
ATOM    181  OP1  DG D  10      42.897  42.722  17.613  1.00 16.08    -0.624 OA
BRANCH 179 182
ATOM    182  O5'  DG D  10      43.924  44.732  18.764  1.00 14.63    -0.268 OA
BRANCH 182 183
ATOM    183  C5'  DG D  10      44.386  44.229  20.006  1.00 14.28     0.187 C 
BRANCH 183 184
ATOM    184  C4'  DG D  10      45.395  43.134  19.765  1.00 14.53     0.175 C 
ATOM    185  C3'  DG D  10      46.033  42.539  21.010  1.00 16.36     0.161 C 
ATOM    186  C2'  DG D  10      47.328  43.337  21.141  1.00 15.07     0.087 C 
ATOM    187  C1'  DG D  10      47.701  43.476  19.682  1.00 13.41     0.210 C 
ATOM    188  O4'  DG D  10      46.486  43.672  18.976  1.00 13.85    -0.333 OA
BRANCH 185 189
ATOM    189  O3'  DG D  10      46.264  41.171  20.666  1.00 20.48    -0.271 OA
BRANCH 189 190
ATOM    190  P    DG D  11      46.147  40.016  21.780  1.00 20.71     0.410 P 
ATOM    191  OP2  DG D  11      45.277  38.883  21.394  1.00 22.10    -0.624 OA
ATOM    192  OP1  DG D  11      47.532  39.776  22.264  1.00 24.32    -0.624 OA
BRANCH 190 193
ATOM    193  O5'  DG D  11      45.390  40.744  22.963  1.00 19.33    -0.268 OA
BRANCH 193 194
ATOM    194  C5'  DG D  11      45.106  40.025  24.157  1.00 18.66     0.187 C 
BRANCH 194 195
ATOM    195  C4'  DG D  11      43.627  39.738  24.217  1.00 18.71     0.175 C 
ATOM    196  C3'  DG D  11      42.804  40.948  24.609  1.00 19.69     0.161 C 
ATOM    197  C2'  DG D  11      42.701  40.813  26.118  1.00 18.26     0.087 C 
ATOM    198  C1'  DG D  11      42.557  39.303  26.259  1.00 15.98     0.210 C 
ATOM    199  O4'  DG D  11      43.274  38.721  25.183  1.00 17.85    -0.333 OA
BRANCH 196 200
ATOM    200  O3'  DG D  11      41.535  40.723  24.015  1.00 24.65    -0.271 OA
BRANCH 200 201
ATOM    201  P    DT D  12      40.913  41.820  23.088  1.00 28.19     0.410 P 
ATOM    202  OP2  DT D  12      40.145  42.860  23.808  1.00 27.85    -0.624 OA
ATOM    203  OP1  DT D  12      42.049  42.178  22.190  1.00 29.91    -0.624 OA
BRANCH 201 204
ATOM    204  O5'  DT D  12      39.802  41.045  22.270  1.00 28.66    -0.268 OA
BRANCH 204 205
ATOM    205  C5'  DT D  12      39.111  41.764  21.299  1.00 29.00     0.187 C 
BRANCH 205 206
ATOM    206  C4'  DT D  12      39.006  40.975  20.035  1.00 28.07     0.175 C 
ATOM    207  C3'  DT D  12      40.190  41.027  19.090  1.00 29.44     0.161 C 
ATOM    208  C2'  DT D  12      39.613  41.639  17.821  1.00 29.37     0.087 C 
ATOM    209  C1'  DT D  12      38.124  41.276  17.915  1.00 27.26     0.211 C 
ATOM    210  O4'  DT D  12      37.832  41.315  19.281  1.00 26.37    -0.333 OA
BRANCH 207 211
ATOM    211  O3'  DT D  12      40.472  39.658  18.965  1.00 31.26    -0.271 OA
BRANCH 211 212
ATOM    212  P    DA D  13      41.967  39.124  19.009  1.00 34.05     0.410 P 
ATOM    213  OP2  DA D  13      42.384  38.724  17.631  1.00 31.89    -0.624 OA
ATOM    214  OP1  DA D  13      42.677  40.197  19.720  1.00 33.32    -0.624 OA
BRANCH 212 215
ATOM    215  O5'  DA D  13      41.809  37.897  19.996  1.00 31.02    -0.268 OA
BRANCH 215 216
ATOM    216  C5'  DA D  13      41.571  38.123  21.385  1.00 27.53     0.187 C 
BRANCH 216 217
ATOM    217  C4'  DA D  13      40.247  37.518  21.781  1.00 25.33     0.175 C 
ATOM    218  O4'  DA D  13      39.375  37.372  20.633  1.00 22.92    -0.333 OA
ATOM    219  C1'  DA D  13      38.991  36.006  20.456  1.00 20.98     0.210 C 
ATOM    220  C2'  DA D  13      40.002  35.180  21.264  1.00 23.30     0.087 C 
ATOM    221  C3'  DA D  13      40.358  36.121  22.405  1.00 26.45     0.161 C 
BRANCH 219 222
ATOM    222  N9   DA D  13      39.012  35.755  19.021  1.00 17.31    -0.272 N 
ATOM    223  C8   DA D  13      39.997  35.159  18.315  1.00 17.58     0.182 A 
ATOM    224  N7   DA D  13      39.815  35.171  17.021  1.00 17.72    -0.219 NA
ATOM    225  C5   DA D  13      38.598  35.780  16.862  1.00 14.33     0.155 A 
ATOM    226  C6   DA D  13      37.820  36.090  15.735  1.00 14.45     0.206 A 
ATOM    227  C4   DA D  13      38.073  36.142  18.098  1.00 15.76     0.170 A 
ATOM    228  N6   DA D  13      38.193  35.847  14.446  1.00 15.52    -0.125 N 
ATOM    229  N1   DA D  13      36.642  36.671  15.957  1.00 14.59    -0.202 NA
ATOM    230  C2   DA D  13      36.270  36.974  17.208  1.00 15.74     0.202 A 
ATOM    231  N3   DA D  13      36.923  36.768  18.342  1.00 15.60    -0.205 NA
ENDBRANCH 219 222
BRANCH 221 232
ATOM    232  O3'  DA D  13      39.395  36.010  23.433  1.00 30.43    -0.271 OA
BRANCH 232 233
ATOM    233  P    DA D  14      39.848  36.222  24.946  1.00 32.07     0.410 P 
ATOM    234  OP2  DA D  14      38.993  35.417  25.806  1.00 33.16    -0.624 OA
ATOM    235  OP1  DA D  14      41.323  36.029  24.951  1.00 33.96    -0.624 OA
BRANCH 233 236
ATOM    236  O5'  DA D  14      39.574  37.752  25.168  1.00 31.87    -0.268 OA
BRANCH 236 237
ATOM    237  C5'  DA D  14      39.351  38.220  26.488  1.00 30.81     0.187 C 
BRANCH 237 238
ATOM    238  C4'  DA D  14      38.086  39.034  26.517  1.00 31.39     0.175 C 
ATOM    239  O4'  DA D  14      37.716  39.422  25.169  1.00 30.66    -0.333 OA
ATOM    240  C1'  DA D  14      36.372  39.038  24.952  1.00 28.20     0.210 C 
ATOM    241  C2'  DA D  14      36.160  37.812  25.818  1.00 29.16     0.087 C 
ATOM    242  C3'  DA D  14      36.893  38.260  27.067  1.00 31.09     0.161 C 
BRANCH 240 243
ATOM    243  N9   DA D  14      36.172  38.857  23.528  1.00 24.41    -0.272 N 
ATOM    244  C4   DA D  14      35.598  39.822  22.748  1.00 21.62     0.170 A 
ATOM    245  N3   DA D  14      35.207  41.053  23.148  1.00 18.94    -0.205 NA
ATOM    246  C5   DA D  14      35.468  39.260  21.506  1.00 22.12     0.155 A 
ATOM    247  C2   DA D  14      34.604  41.699  22.128  1.00 18.83     0.202 A 
ATOM    248  N1   DA D  14      34.426  41.274  20.895  1.00 18.79    -0.202 NA
ATOM    249  C6   DA D  14      34.873  40.035  20.540  1.00 19.52     0.206 A 
ATOM    250  N6   DA D  14      34.736  39.621  19.296  1.00 21.07    -0.125 N 
ATOM    251  N7   DA D  14      35.984  37.964  21.483  1.00 24.53    -0.219 NA
ATOM    252  C8   DA D  14      36.415  37.788  22.709  1.00 24.70     0.182 A 
ENDBRANCH 240 243
BRANCH 242 253
ATOM    253  O3'  DA D  14      36.121  39.204  27.776  1.00 31.14    -0.271 OA
BRANCH 253 254
ATOM    254  P    DC D  15      35.276  38.757  29.068  1.00 30.59     0.410 P 
ATOM    255  OP1  DC D  15      35.200  37.269  29.007  1.00 31.75    -0.624 OA
ATOM    256  OP2  DC D  15      34.036  39.571  29.253  1.00 29.87    -0.624 OA
BRANCH 254 257
ATOM    257  O5'  DC D  15      36.345  39.124  30.204  1.00 30.76    -0.268 OA
BRANCH 257 258
ATOM    258  C5'  DC D  15      36.558  38.215  31.317  1.00 28.28     0.187 C 
BRANCH 258 259
ATOM    259  C4'  DC D  15      38.037  37.974  31.556  1.00 28.15     0.175 C 
ATOM    260  O4'  DC D  15      38.306  36.589  31.871  1.00 23.18    -0.333 OA
ATOM    261  C1'  DC D  15      39.257  36.036  30.960  1.00 22.58     0.211 C 
ATOM    262  C2'  DC D  15      39.319  36.994  29.782  1.00 24.52     0.087 C 
ATOM    263  C3'  DC D  15      38.968  38.331  30.407  1.00 28.37     0.161 C 
BRANCH 261 264
ATOM    264  N1   DC D  15      38.762  34.715  30.563  1.00 18.64    -0.256 N 
ATOM    265  C6   DC D  15      37.831  34.590  29.568  1.00 16.47     0.085 A 
ATOM    266  C5   DC D  15      37.311  33.408  29.250  1.00 15.01     0.060 A 
ATOM    267  C4   DC D  15      37.761  32.268  30.015  1.00 13.33     0.190 A 
ATOM    268  N3   DC D  15      38.726  32.377  30.925  1.00 13.89    -0.171 NA
ATOM    269  N4   DC D  15      37.196  31.089  29.830  1.00 15.28    -0.127 N 
ATOM    270  C2   DC D  15      39.240  33.569  31.235  1.00 18.12     0.353 A 
ATOM    271  O2   DC D  15      40.116  33.719  32.117  1.00 20.47    -0.244 OA
ENDBRANCH 261 264
BRANCH 263 272
ATOM    272  O3'  DC D  15      40.154  38.927  30.912  1.00 31.34    -0.271 OA
BRANCH 272 273
ATOM    273  P    DG D  16      40.522  40.404  30.467  1.00 32.78     0.410 P 
ATOM    274  OP1  DG D  16      39.730  41.332  31.326  1.00 34.59    -0.624 OA
ATOM    275  OP2  DG D  16      40.384  40.459  28.990  1.00 31.45    -0.624 OA
BRANCH 273 276
ATOM    276  O5'  DG D  16      42.062  40.512  30.825  1.00 31.83    -0.268 OA
BRANCH 276 277
ATOM    277  C5'  DG D  16      42.554  41.595  31.598  1.00 31.48     0.187 C 
BRANCH 277 278
ATOM    278  C4'  DG D  16      43.844  42.092  30.998  1.00 29.56     0.178 C 
ATOM    279  C3'  DG D  16      44.325  43.444  31.543  1.00 29.50     0.186 C 
ATOM    280  C2'  DG D  16      43.936  44.412  30.434  1.00 28.21     0.090 C 
ATOM    281  O3'  DG D  16      45.769  43.424  31.620  1.00 31.52    -0.221 OA
ATOM    282  C1'  DG D  16      44.200  43.548  29.230  1.00 24.75     0.210 C 
ATOM    283  O4'  DG D  16      43.682  42.284  29.577  1.00 27.49    -0.333 OA
BRANCH 282 284
ATOM    284  N9   DG D  16      43.555  43.966  27.998  1.00 21.33    -0.271 N 
ATOM    285  C4   DG D  16      44.128  43.959  26.758  1.00 19.88     0.188 A 
ATOM    286  N3   DG D  16      45.383  43.522  26.464  1.00 18.33    -0.038 NA
ATOM    287  C5   DG D  16      43.176  44.483  25.915  1.00 17.85     0.176 A 
ATOM    288  C2   DG D  16      45.665  43.646  25.199  1.00 15.82     0.773 A 
ATOM    289  N1   DG D  16      44.782  44.189  24.274  1.00 16.33    -0.016 NA
ATOM    290  N2   DG D  16      46.876  43.218  24.719  1.00 16.23     0.062 N 
ATOM    291  C6   DG D  16      43.493  44.635  24.551  1.00 15.94     0.316 A 
ATOM    292  O6   DG D  16      42.793  45.105  23.612  1.00 18.70    -0.263 OA
ATOM    293  N7   DG D  16      42.006  44.763  26.613  1.00 18.48    -0.217 NA
ATOM    294  C8   DG D  16      42.285  44.451  27.847  1.00 19.50     0.182 A 
ENDBRANCH 282 284
ENDBRANCH 277 278
ENDBRANCH 276 277
ENDBRANCH 273 276
ENDBRANCH 272 273
ENDBRANCH 263 272
ENDBRANCH 258 259
ENDBRANCH 257 258
ENDBRANCH 254 257
ENDBRANCH 253 254
ENDBRANCH 242 253
ENDBRANCH 237 238
ENDBRANCH 236 237
ENDBRANCH 233 236
ENDBRANCH 232 233
ENDBRANCH 221 232
ENDBRANCH 216 217
ENDBRANCH 215 216
ENDBRANCH 212 215
ENDBRANCH 211 212
ENDBRANCH 207 211
BRANCH 209 295
ATOM    295  N1   DT D  12      37.172  42.197  17.283  1.00 25.54    -0.256 N 
ATOM    296  C6   DT D  12      37.305  43.564  17.412  1.00 22.97     0.083 A 
ATOM    297  C5   DT D  12      36.419  44.448  16.914  1.00 22.23     0.053 A 
ATOM    298  C4   DT D  12      35.282  43.934  16.205  1.00 20.03     0.280 A 
ATOM    299  C7   DT D  12      36.552  45.932  17.040  1.00 23.27     0.038 C 
ATOM    300  O4   DT D  12      34.404  44.654  15.738  1.00 18.53    -0.265 OA
ATOM    301  N3   DT D  12      35.223  42.545  16.076  1.00 19.51    -0.153 NA
ATOM    302  C2   DT D  12      36.113  41.637  16.582  1.00 22.25     0.354 A 
ATOM    303  O2   DT D  12      35.986  40.427  16.435  1.00 24.24    -0.244 OA
ENDBRANCH 209 295
ENDBRANCH 205 206
ENDBRANCH 204 205
ENDBRANCH 201 204
ENDBRANCH 200 201
ENDBRANCH 196 200
BRANCH 198 304
ATOM    304  N9   DG D  11      43.109  38.728  27.482  1.00 15.12    -0.271 N 
ATOM    305  C8   DG D  11      42.537  37.771  28.287  1.00 13.13     0.182 A 
ATOM    306  N7   DG D  11      43.225  37.539  29.373  1.00 13.46    -0.217 NA
ATOM    307  C5   DG D  11      44.315  38.397  29.281  1.00 11.37     0.176 A 
ATOM    308  C6   DG D  11      45.369  38.602  30.188  1.00 10.16     0.316 A 
ATOM    309  C4   DG D  11      44.282  39.116  28.111  1.00 12.33     0.188 A 
ATOM    310  O6   DG D  11      45.509  38.108  31.285  1.00 10.86    -0.263 OA
ATOM    311  N1   DG D  11      46.302  39.521  29.685  1.00 10.07    -0.016 NA
ATOM    312  C2   DG D  11      46.191  40.186  28.466  1.00 11.41     0.773 A 
ATOM    313  N2   DG D  11      47.207  41.024  28.101  1.00 10.83     0.062 N 
ATOM    314  N3   DG D  11      45.164  40.031  27.649  1.00 11.83    -0.038 NA
ENDBRANCH 198 304
ENDBRANCH 194 195
ENDBRANCH 193 194
ENDBRANCH 190 193
ENDBRANCH 189 190
ENDBRANCH 185 189
BRANCH 187 315
ATOM    315  N9   DG D  10      48.563  44.624  19.438  1.00 11.23    -0.271 N 
ATOM    316  C8   DG D  10      48.197  45.954  19.346  1.00 12.20     0.182 A 
ATOM    317  N7   DG D  10      49.232  46.754  19.198  1.00 12.66    -0.217 NA
ATOM    318  C5   DG D  10      50.324  45.894  19.157  1.00 10.47     0.176 A 
ATOM    319  C4   DG D  10      49.927  44.583  19.297  1.00 10.52     0.188 A 
ATOM    320  C6   DG D  10      51.736  46.164  18.988  1.00 11.39     0.316 A 
ATOM    321  N3   DG D  10      50.690  43.475  19.296  1.00 10.98    -0.038 NA
ATOM    322  C2   DG D  10      51.985  43.755  19.191  1.00  8.78     0.773 A 
ATOM    323  N1   DG D  10      52.491  45.017  19.034  1.00  9.45    -0.016 NA
ATOM    324  N2   DG D  10      52.889  42.783  19.253  1.00 10.60     0.062 N 
ATOM    325  O6   DG D  10      52.311  47.261  18.795  1.00 10.46    -0.263 OA
ENDBRANCH 187 315
ENDBRANCH 183 184
ENDBRANCH 182 183
ENDBRANCH 179 182
ENDBRANCH 178 179
ENDBRANCH 168 178
ENDBRANCH   1 164
TORSDOF 92
ENDMDL
MODEL 3
REMARK VINA RESULT:      -0.3      3.394     13.110
REMARK WARNING: 32 MAX_TORS EXCEEDED!!!
REMARK  92 active torsions:
REMARK  status: ('A' for Active; 'I' for Inactive)
REMARK    1  A    between atoms: C5'_1  and  C4'_3 
REMARK    2  A    between atoms: C3'_5  and  O3'_6 
REMARK    3  A    between atoms: O3'_6  and  P_17 
REMARK    4  A    between atoms: C1'_8  and  N1_9 
REMARK    5  A    between atoms: P_17  and  O5'_19 
REMARK    6  A    between atoms: C5'_18  and  O5'_19 
REMARK    7  A    between atoms: C5'_18  and  C4'_20 
REMARK    8  A    between atoms: C3'_22  and  O3'_23 
REMARK    9  A    between atoms: O3'_23  and  P_39 
REMARK   10  A    between atoms: C1'_25  and  N9_36 
REMARK   11  A    between atoms: P_39  and  O5'_41 
REMARK   12  A    between atoms: C5'_40  and  O5'_41 
REMARK   13  A    between atoms: C5'_40  and  C4'_42 
REMARK   14  A    between atoms: C3'_44  and  O3'_45 
REMARK   15  A    between atoms: O3'_45  and  P_59 
REMARK   16  A    between atoms: C1'_47  and  N1_48 
REMARK   17  A    between atoms: P_59  and  O5'_61 
REMARK   18  A    between atoms: C5'_60  and  C4'_62 
REMARK   19  A    between atoms: C5'_60  and  O5'_61 
REMARK   20  A    between atoms: C3'_64  and  O3'_65 
REMARK   21  A    between atoms: O3'_65  and  P_79 
REMARK   22  A    between atoms: C1'_67  and  N1_68 
REMARK   23  A    between atoms: P_79  and  O5'_81 
REMARK   24  A    between atoms: C5'_80  and  C4'_82 
REMARK   25  A    between atoms: C5'_80  and  O5'_81 
REMARK   26  A    between atoms: C3'_84  and  O3'_85 
REMARK   27  A    between atoms: O3'_85  and  P_100 
REMARK   28  A    between atoms: C1'_87  and  N9_97 
REMARK   29  A    between atoms: P_100  and  O5'_102 
REMARK   30  A    between atoms: C5'_101  and  C4'_103 
REMARK   31  A    between atoms: C5'_101  and  O5'_102 
REMARK   32  A    between atoms: C3'_105  and  O3'_106 
REMARK   33  A    between atoms: O3'_106  and  P_119 
REMARK   34  A    between atoms: C1'_108  and  N1_109 
REMARK   35  A    between atoms: P_119  and  O5'_121 
REMARK   36  A    between atoms: C5'_120  and  O5'_121 
REMARK   37  A    between atoms: C5'_120  and  C4'_122 
REMARK   38  A    between atoms: C3'_124  and  O3'_125 
REMARK   39  A    between atoms: O3'_125  and  P_138 
REMARK   40  A    between atoms: C1'_127  and  N1_128 
REMARK   41  A    between atoms: P_138  and  O5'_140 
REMARK   42  A    between atoms: C5'_139  and  C4'_141 
REMARK   43  A    between atoms: C5'_139  and  O5'_140 
REMARK   44  A    between atoms: C3'_143  and  O3'_144 
REMARK   45  A    between atoms: O3'_144  and  P_159 
REMARK   46  A    between atoms: C1'_146  and  N9_156 
REMARK   47  A    between atoms: P_159  and  O5'_161 
REMARK   48  A    between atoms: C5'_160  and  O5'_161 
REMARK   49  A    between atoms: C5'_160  and  C4'_162 
REMARK   50  A    between atoms: C3'_164  and  O3'_165 
REMARK   51  A    between atoms: O3'_165  and  P_179 
REMARK   52  A    between atoms: C1'_167  and  N1_168 
REMARK   53  A    between atoms: P_179  and  O5'_181 
REMARK   54  A    between atoms: C5'_180  and  C4'_182 
REMARK   55  A    between atoms: C5'_180  and  O5'_181 
REMARK   56  A    between atoms: C3'_184  and  O3'_185 
REMARK   57  A    between atoms: O3'_185  and  P_201 
REMARK   58  A    between atoms: C1'_187  and  N9_198 
REMARK   59  A    between atoms: P_201  and  O5'_203 
REMARK   60  A    between atoms: C5'_202  and  O5'_203 
REMARK   61  A    between atoms: C5'_202  and  C4'_204 
REMARK   62  A    between atoms: C3'_206  and  O3'_207 
REMARK   63  A    between atoms: O3'_207  and  P_223 
REMARK   64  A    between atoms: C1'_209  and  N9_220 
REMARK   65  A    between atoms: P_223  and  O5'_225 
REMARK   66  A    between atoms: C5'_224  and  O5'_225 
REMARK   67  A    between atoms: C5'_224  and  C4'_226 
REMARK   68  A    between atoms: C3'_228  and  O3'_229 
REMARK   69  A    between atoms: O3'_229  and  P_243 
REMARK   70  A    between atoms: C1'_231  and  N1_232 
REMARK   71  A    between atoms: P_243  and  O5'_245 
REMARK   72  A    between atoms: C5'_244  and  C4'_246 
REMARK   73  A    between atoms: C5'_244  and  O5'_245 
REMARK   74  A    between atoms: C3'_248  and  O3'_249 
REMARK   75  A    between atoms: O3'_249  and  P_264 
REMARK   76  A    between atoms: C1'_251  and  N9_261 
REMARK   77  A    between atoms: P_264  and  O5'_266 
REMARK   78  A    between atoms: C5'_265  and  C4'_267 
REMARK   79  A    between atoms: C5'_265  and  O5'_266 
REMARK   80  A    between atoms: C3'_269  and  O3'_270 
REMARK   81  A    between atoms: O3'_270  and  P_285 
REMARK   82  A    between atoms: C1'_272  and  N9_282 
REMARK   83  A    between atoms: P_285  and  O5'_287 
REMARK   84  A    between atoms: C5'_286  and  O5'_287 
REMARK   85  A    between atoms: C5'_286  and  C4'_288 
REMARK   86  A    between atoms: C3'_290  and  O3'_291 
REMARK   87  A    between atoms: O3'_291  and  P_304 
REMARK   88  A    between atoms: C1'_293  and  N1_294 
REMARK   89  A    between atoms: P_304  and  O5'_306 
REMARK   90  A    between atoms: C5'_305  and  C4'_307 
REMARK   91  A    between atoms: C5'_305  and  O5'_306 
REMARK   92  A    between atoms: C1'_312  and  N9_323 
ROOT
HETATM    1  C5' BRU D   9      42.455  37.862  17.541  1.00 14.48     0.187 C 
ENDROOT
BRANCH   1   2
HETATM    2  O5' BRU D   9      42.384  36.542  17.037  1.00 12.82    -0.268 OA
BRANCH   2   3
HETATM    3  P   BRU D   9      41.417  35.483  17.705  1.00 11.11     0.410 P 
HETATM    4  OP1 BRU D   9      42.209  34.536  18.574  1.00 14.53    -0.624 OA
HETATM    5  OP2 BRU D   9      40.334  36.303  18.310  1.00 12.75    -0.624 OA
BRANCH   3   6
ATOM      6  O3'  DA D   8      40.968  34.582  16.481  1.00 11.43    -0.271 OA
BRANCH   6   7
ATOM      7  C3'  DA D   8      39.636  34.108  16.435  1.00 10.57     0.161 C 
ATOM      8  C4'  DA D   8      39.639  32.594  16.624  1.00 11.52     0.175 C 
ATOM      9  O4'  DA D   8      38.485  32.119  15.909  1.00 11.40    -0.333 OA
ATOM     10  C1'  DA D   8      38.088  33.081  14.918  1.00 11.23     0.210 C 
ATOM     11  C2'  DA D   8      39.032  34.274  15.050  1.00 12.23     0.087 C 
BRANCH   8  12
ATOM     12  C5'  DA D   8      39.565  32.109  18.049  1.00 13.06     0.187 C 
BRANCH  12  13
ATOM     13  O5'  DA D   8      38.297  32.381  18.594  1.00 11.03    -0.268 OA
BRANCH  13  14
ATOM     14  P    DA D   8      38.155  33.511  19.736  1.00 12.25     0.410 P 
ATOM     15  OP2  DA D   8      37.435  34.668  19.092  1.00 11.74    -0.624 OA
ATOM     16  OP1  DA D   8      39.459  33.741  20.375  1.00 15.55    -0.624 OA
BRANCH  14  17
ATOM     17  O3'  DC D   7      37.201  32.855  20.842  1.00 12.10    -0.271 OA
BRANCH  17  18
ATOM     18  C3'  DC D   7      37.138  31.419  20.950  1.00 11.74     0.161 C 
ATOM     19  C2'  DC D   7      38.219  30.828  21.854  1.00 11.76     0.087 C 
ATOM     20  C1'  DC D   7      37.568  29.537  22.363  1.00 12.42     0.211 C 
ATOM     21  O4'  DC D   7      36.162  29.740  22.269  1.00 12.34    -0.333 OA
ATOM     22  C4'  DC D   7      35.872  31.042  21.690  1.00 11.56     0.175 C 
BRANCH  20  23
ATOM     23  N1   DC D   7      37.906  28.440  21.426  1.00 11.09    -0.256 N 
ATOM     24  C2   DC D   7      38.580  27.337  21.955  1.00  9.80     0.353 A 
ATOM     25  O2   DC D   7      38.888  27.398  23.159  1.00 10.91    -0.244 OA
ATOM     26  N3   DC D   7      38.888  26.271  21.176  1.00  9.76    -0.171 NA
ATOM     27  C4   DC D   7      38.597  26.292  19.886  1.00 11.68     0.190 A 
ATOM     28  N4   DC D   7      38.929  25.209  19.127  1.00 10.83    -0.127 N 
ATOM     29  C5   DC D   7      37.925  27.429  19.285  1.00 10.32     0.060 A 
ATOM     30  C6   DC D   7      37.600  28.474  20.095  1.00 11.95     0.085 A 
ENDBRANCH  20  23
BRANCH  22  31
ATOM     31  C5'  DC D   7      34.637  30.947  20.839  1.00 14.18     0.187 C 
BRANCH  31  32
ATOM     32  O5'  DC D   7      33.844  32.122  21.059  1.00 16.43    -0.268 OA
BRANCH  32  33
ATOM     33  P    DC D   7      33.666  33.168  19.878  1.00 18.54     0.410 P 
ATOM     34  OP1  DC D   7      34.562  32.766  18.804  1.00 22.71    -0.624 OA
ATOM     35  OP2  DC D   7      32.228  33.317  19.667  1.00 19.79    -0.624 OA
BRANCH  33  36
ATOM     36  O3'  DC D   6      34.368  34.487  20.487  1.00 17.13    -0.271 OA
BRANCH  36  37
ATOM     37  C3'  DC D   6      33.823  35.130  21.617  1.00 14.94     0.161 C 
ATOM     38  C4'  DC D   6      33.535  36.573  21.219  1.00 15.77     0.175 C 
ATOM     39  O4'  DC D   6      34.696  37.313  21.639  1.00 13.81    -0.333 OA
ATOM     40  C1'  DC D   6      35.676  36.414  22.076  1.00 12.86     0.211 C 
ATOM     41  C2'  DC D   6      34.908  35.262  22.670  1.00 14.65     0.087 C 
BRANCH  38  42
ATOM     42  C5'  DC D   6      32.296  37.133  21.875  1.00 18.13     0.187 C 
BRANCH  42  43
ATOM     43  O5'  DC D   6      32.635  38.309  22.604  1.00 19.27    -0.268 OA
BRANCH  43  44
ATOM     44  P    DC D   6      32.246  38.441  24.154  1.00 19.84     0.410 P 
ATOM     45  OP1  DC D   6      33.119  39.525  24.673  1.00 24.35    -0.624 OA
ATOM     46  OP2  DC D   6      30.792  38.569  24.249  1.00 20.92    -0.624 OA
BRANCH  44  47
ATOM     47  O3'  DA D   5      32.787  37.065  24.745  1.00 19.93    -0.271 OA
BRANCH  47  48
ATOM     48  C3'  DA D   5      32.651  36.774  26.134  1.00 16.89     0.161 C 
ATOM     49  C4'  DA D   5      34.072  36.631  26.671  1.00 17.32     0.175 C 
ATOM     50  O4'  DA D   5      34.377  35.235  26.581  1.00 18.24    -0.333 OA
ATOM     51  C1'  DA D   5      33.213  34.500  26.160  1.00 15.77     0.210 C 
ATOM     52  C2'  DA D   5      32.021  35.406  26.391  1.00 16.34     0.087 C 
BRANCH  49  53
ATOM     53  C5'  DA D   5      34.299  37.191  28.058  1.00 17.61     0.187 C 
BRANCH  53  54
ATOM     54  O5'  DA D   5      35.697  37.248  28.328  1.00 19.33    -0.268 OA
BRANCH  54  55
ATOM     55  P    DA D   5      36.263  38.334  29.326  1.00 20.74     0.410 P 
ATOM     56  OP2  DA D   5      37.070  37.706  30.398  1.00 23.47    -0.624 OA
ATOM     57  OP1  DA D   5      35.115  39.235  29.671  1.00 23.99    -0.624 OA
BRANCH  55  58
ATOM     58  O3'  DT D   4      37.189  39.242  28.364  1.00 19.59    -0.271 OA
BRANCH  58  59
ATOM     59  C3'  DT D   4      37.324  40.664  28.576  1.00 18.10     0.161 C 
ATOM     60  C4'  DT D   4      37.303  41.356  27.204  1.00 15.82     0.175 C 
ATOM     61  O4'  DT D   4      38.667  41.701  26.900  1.00 16.38    -0.333 OA
ATOM     62  C1'  DT D   4      39.564  41.170  27.871  1.00 15.63     0.211 C 
ATOM     63  C2'  DT D   4      38.703  41.020  29.136  1.00 16.56     0.087 C 
BRANCH  60  64
ATOM     64  C5'  DT D   4      36.482  42.625  27.101  1.00 17.08     0.187 C 
BRANCH  64  65
ATOM     65  O5'  DT D   4      35.122  42.367  27.504  1.00 15.07    -0.268 OA
BRANCH  65  66
ATOM     66  P    DT D   4      34.406  43.339  28.549  1.00 15.11     0.410 P 
ATOM     67  OP1  DT D   4      33.048  43.730  27.998  1.00 18.00    -0.624 OA
ATOM     68  OP2  DT D   4      34.496  42.641  29.866  1.00 17.03    -0.624 OA
BRANCH  66  69
HETATM   69  O3' BRU D   3      35.275  44.636  28.461  1.00 15.24    -0.271 OA
BRANCH  69  70
HETATM   70  C3' BRU D   3      34.733  45.873  27.985  1.00 13.22     0.161 C 
HETATM   71  C4' BRU D   3      35.747  46.343  26.943  1.00 14.89     0.175 C 
HETATM   72  O4' BRU D   3      36.041  47.721  27.247  1.00 16.05    -0.333 OA
HETATM   73  C1' BRU D   3      35.914  47.866  28.657  1.00 15.34     0.211 C 
HETATM   74  C2' BRU D   3      34.669  47.032  28.991  1.00 12.90     0.087 C 
BRANCH  71  75
HETATM   75  C5' BRU D   3      35.429  46.155  25.482  1.00 17.61     0.187 C 
BRANCH  75  76
HETATM   76  O5' BRU D   3      34.257  45.385  25.304  1.00 15.66    -0.268 OA
BRANCH  76  77
HETATM   77  P   BRU D   3      34.274  44.267  24.162  1.00 16.77     0.410 P 
HETATM   78  OP1 BRU D   3      33.506  43.108  24.700  1.00 18.57    -0.624 OA
HETATM   79  OP2 BRU D   3      33.900  44.892  22.863  1.00 18.18    -0.624 OA
BRANCH  77  80
ATOM     80  O3'  DG D   2      35.796  43.811  24.071  1.00 17.32    -0.271 OA
BRANCH  80  81
ATOM     81  C3'  DG D   2      36.327  43.265  22.874  1.00 15.47     0.161 C 
ATOM     82  C2'  DG D   2      37.794  43.687  22.715  1.00 16.87     0.087 C 
ATOM     83  C1'  DG D   2      38.502  42.760  23.701  1.00 16.11     0.210 C 
ATOM     84  O4'  DG D   2      37.733  41.551  23.710  1.00 18.37    -0.333 OA
ATOM     85  C4'  DG D   2      36.419  41.764  23.148  1.00 18.34     0.175 C 
BRANCH  83  86
ATOM     86  N9   DG D   2      39.868  42.381  23.341  1.00 16.03    -0.272 N 
ATOM     87  C8   DG D   2      40.294  41.196  22.791  1.00 14.57     0.182 A 
ATOM     88  N7   DG D   2      41.599  41.115  22.673  1.00 16.34    -0.217 NA
ATOM     89  C5   DG D   2      42.059  42.344  23.178  1.00 13.99     0.175 A 
ATOM     90  C6   DG D   2      43.391  42.833  23.334  1.00 12.33     0.302 A 
ATOM     91  C4   DG D   2      40.998  43.147  23.557  1.00 12.94     0.172 A 
ATOM     92  O6   DG D   2      44.426  42.252  23.063  1.00 15.71    -0.263 OA
ATOM     93  N1   DG D   2      43.420  44.101  23.872  1.00 12.85    -0.174 NA
ATOM     94  C2   DG D   2      42.307  44.846  24.214  1.00 12.30     0.242 A 
ATOM     95  N2   DG D   2      42.527  46.120  24.714  1.00 15.13    -0.059 NA
ATOM     96  N3   DG D   2      41.034  44.397  24.070  1.00 14.89    -0.195 NA
ENDBRANCH  83  86
BRANCH  85  97
ATOM     97  C5'  DG D   2      36.205  40.862  21.956  1.00 20.11     0.187 C 
BRANCH  97  98
ATOM     98  O5'  DG D   2      37.411  40.189  21.611  1.00 21.44    -0.268 OA
BRANCH  98  99
ATOM     99  P    DG D   2      37.898  40.116  20.106  1.00 23.19     0.410 P 
ATOM    100  OP1  DG D   2      37.917  41.537  19.653  1.00 25.33    -0.624 OA
ATOM    101  OP2  DG D   2      39.084  39.267  19.919  1.00 23.21    -0.624 OA
BRANCH  99 102
ATOM    102  O3'  DC D   1      36.709  39.388  19.318  1.00 26.59    -0.271 OA
BRANCH 102 103
ATOM    103  C3'  DC D   1      37.039  38.372  18.381  1.00 27.88     0.161 C 
ATOM    104  C2'  DC D   1      35.781  37.572  18.104  1.00 26.06     0.087 C 
ATOM    105  C1'  DC D   1      35.050  38.530  17.193  1.00 24.51     0.211 C 
ATOM    106  O4'  DC D   1      36.065  39.123  16.368  1.00 29.50    -0.333 OA
ATOM    107  C4'  DC D   1      37.328  39.054  17.050  1.00 29.48     0.178 C 
BRANCH 105 108
ATOM    108  N1   DC D   1      34.035  37.978  16.287  1.00 21.38    -0.256 N 
ATOM    109  C6   DC D   1      34.246  37.898  14.937  1.00 19.62     0.085 A 
ATOM    110  C5   DC D   1      33.269  37.473  14.110  1.00 19.43     0.060 A 
ATOM    111  C4   DC D   1      32.034  37.073  14.711  1.00 17.00     0.190 A 
ATOM    112  N4   DC D   1      31.029  36.623  13.958  1.00 18.52    -0.127 N 
ATOM    113  N3   DC D   1      31.841  37.125  16.038  1.00 17.32    -0.171 NA
ATOM    114  C2   DC D   1      32.820  37.579  16.834  1.00 18.49     0.353 A 
ATOM    115  O2   DC D   1      32.662  37.657  18.057  1.00 18.51    -0.244 OA
ENDBRANCH 105 108
BRANCH 107 116
ATOM    116  C5'  DC D   1      38.363  38.376  16.180  1.00 31.78     0.214 C 
ATOM    117  O5'  DC D   1      37.733  37.703  15.086  1.00 34.90    -0.218 OA
ENDBRANCH 107 116
ENDBRANCH 102 103
ENDBRANCH  99 102
ENDBRANCH  98  99
ENDBRANCH  97  98
ENDBRANCH  85  97
ENDBRANCH  80  81
ENDBRANCH  77  80
ENDBRANCH  76  77
ENDBRANCH  75  76
ENDBRANCH  71  75
BRANCH  73 118
HETATM  118  N1  BRU D   3      35.768  49.295  28.946  1.00 13.25    -0.255 N 
HETATM  119  C2  BRU D   3      36.783  49.988  29.643  1.00 11.90     0.354 A 
HETATM  120  O2  BRU D   3      37.789  49.444  30.057  1.00 16.11    -0.244 OA
HETATM  121  N3  BRU D   3      36.569  51.318  29.830  1.00 12.15    -0.153 NA
HETATM  122  C4  BRU D   3      35.513  52.018  29.396  1.00 12.48     0.291 A 
HETATM  123  O4  BRU D   3      35.365  53.233  29.641  1.00 16.38    -0.264 OA
HETATM  124  C5  BRU D   3      34.553  51.207  28.732  1.00 14.67     0.110 A 
HETATM  125  C6  BRU D   3      34.707  49.928  28.545  1.00 13.17     0.094 A 
HETATM  126 BR   BRU D   3      32.783  52.136  28.072  1.00 24.07    -0.043 Br
ENDBRANCH  73 118
ENDBRANCH  69  70
ENDBRANCH  66  69
ENDBRANCH  65  66
ENDBRANCH  64  65
ENDBRANCH  60  64
BRANCH  62 127
ATOM    127  N1   DT D   4      40.727  42.102  27.918  1.00 13.98    -0.256 N 
ATOM    128  C2   DT D   4      41.785  41.867  27.085  1.00 13.56     0.354 A 
ATOM    129  O2   DT D   4      41.812  40.882  26.350  1.00 16.57    -0.244 OA
ATOM    130  N3   DT D   4      42.802  42.813  27.108  1.00 12.35    -0.153 NA
ATOM    131  C4   DT D   4      42.828  43.963  27.893  1.00 11.46     0.280 A 
ATOM    132  O4   DT D   4      43.756  44.783  27.804  1.00 13.76    -0.265 OA
ATOM    133  C5   DT D   4      41.699  44.099  28.794  1.00 12.51     0.053 A 
ATOM    134  C7   DT D   4      41.670  45.257  29.735  1.00 14.43     0.038 C 
ATOM    135  C6   DT D   4      40.718  43.196  28.761  1.00 14.14     0.083 A 
ENDBRANCH  62 127
ENDBRANCH  58  59
ENDBRANCH  55  58
ENDBRANCH  54  55
ENDBRANCH  53  54
ENDBRANCH  49  53
BRANCH  51 136
ATOM    136  N9   DA D   5      33.228  33.277  26.975  1.00 14.16    -0.272 N 
ATOM    137  C4   DA D   5      33.712  32.052  26.569  1.00 14.21     0.170 A 
ATOM    138  C5   DA D   5      33.725  31.266  27.713  1.00 12.40     0.155 A 
ATOM    139  N3   DA D   5      34.109  31.682  25.346  1.00 13.46    -0.205 NA
ATOM    140  C6   DA D   5      34.184  29.956  27.591  1.00 12.04     0.206 A 
ATOM    141  N7   DA D   5      33.236  31.971  28.782  1.00 14.47    -0.219 NA
ATOM    142  N6   DA D   5      34.231  29.109  28.639  1.00 12.46    -0.125 N 
ATOM    143  N1   DA D   5      34.591  29.537  26.370  1.00 13.98    -0.202 NA
ATOM    144  C2   DA D   5      34.538  30.417  25.351  1.00 14.25     0.202 A 
ATOM    145  C8   DA D   5      32.919  33.146  28.288  1.00 14.09     0.182 A 
ENDBRANCH  51 136
ENDBRANCH  47  48
ENDBRANCH  44  47
ENDBRANCH  43  44
ENDBRANCH  42  43
ENDBRANCH  38  42
BRANCH  40 146
ATOM    146  N1   DC D   6      36.621  37.140  22.974  1.00 11.89    -0.256 N 
ATOM    147  C2   DC D   6      37.992  37.050  22.678  1.00 11.45     0.353 A 
ATOM    148  O2   DC D   6      38.317  36.502  21.646  1.00 12.57    -0.244 OA
ATOM    149  N3   DC D   6      38.904  37.576  23.539  1.00 11.17    -0.171 NA
ATOM    150  C4   DC D   6      38.492  38.213  24.630  1.00 11.08     0.190 A 
ATOM    151  N4   DC D   6      39.402  38.713  25.482  1.00 10.70    -0.127 N 
ATOM    152  C5   DC D   6      37.086  38.371  24.922  1.00 10.83     0.060 A 
ATOM    153  C6   DC D   6      36.204  37.819  24.069  1.00 11.79     0.085 A 
ENDBRANCH  40 146
ENDBRANCH  36  37
ENDBRANCH  33  36
ENDBRANCH  32  33
ENDBRANCH  31  32
ENDBRANCH  22  31
ENDBRANCH  17  18
ENDBRANCH  14  17
ENDBRANCH  13  14
ENDBRANCH  12  13
ENDBRANCH   8  12
BRANCH  10 154
ATOM    154  N9   DA D   8      36.725  33.496  15.249  1.00 10.83    -0.272 N 
ATOM    155  C4   DA D   8      35.612  32.733  14.996  1.00  9.99     0.170 A 
ATOM    156  N3   DA D   8      35.571  31.510  14.403  1.00 10.21    -0.205 NA
ATOM    157  C5   DA D   8      34.549  33.445  15.508  1.00 10.31     0.155 A 
ATOM    158  C2   DA D   8      34.345  31.050  14.360  1.00 10.39     0.202 A 
ATOM    159  N1   DA D   8      33.210  31.634  14.806  1.00 11.14    -0.202 NA
ATOM    160  C6   DA D   8      33.290  32.832  15.431  1.00 10.09     0.206 A 
ATOM    161  N6   DA D   8      32.181  33.325  15.962  1.00 11.37    -0.125 N 
ATOM    162  N7   DA D   8      34.989  34.671  16.037  1.00 10.47    -0.219 NA
ATOM    163  C8   DA D   8      36.289  34.647  15.838  1.00 11.39     0.182 A 
ENDBRANCH  10 154
ENDBRANCH   6   7
ENDBRANCH   3   6
ENDBRANCH   2   3
ENDBRANCH   1   2
BRANCH   1 164
HETATM  164  C4' BRU D   9      43.673  38.022  18.423  1.00 14.07     0.175 C 
HETATM  165  O4' BRU D   9      44.357  39.261  18.068  1.00 13.32    -0.333 OA
HETATM  166  C1' BRU D   9      45.056  39.756  19.207  1.00 13.84     0.211 C 
HETATM  167  C2' BRU D   9      44.597  38.962  20.411  1.00 12.11     0.087 C 
HETATM  168  C3' BRU D   9      43.404  38.163  19.907  1.00 15.00     0.161 C 
BRANCH 166 169
HETATM  169  N1  BRU D   9      44.646  41.148  19.417  1.00 13.67    -0.255 N 
HETATM  170  C2  BRU D   9      45.607  42.083  19.568  1.00 11.22     0.354 A 
HETATM  171  O2  BRU D   9      46.779  41.781  19.572  1.00 13.50    -0.244 OA
HETATM  172  N3  BRU D   9      45.160  43.390  19.703  1.00 11.85    -0.153 NA
HETATM  173  C4  BRU D   9      43.876  43.767  19.699  1.00 10.30     0.291 A 
HETATM  174  O4  BRU D   9      43.559  44.986  19.725  1.00 12.93    -0.264 OA
HETATM  175  C5  BRU D   9      42.961  42.663  19.582  1.00 12.08     0.110 A 
HETATM  176  C6  BRU D   9      43.358  41.443  19.451  1.00 13.06     0.094 A 
HETATM  177 BR   BRU D   9      40.993  43.316  19.591  1.00 15.13    -0.043 Br
ENDBRANCH 166 169
BRANCH 168 178
HETATM  178  O3' BRU D   9      43.360  36.893  20.543  1.00 13.15    -0.271 OA
BRANCH 178 179
ATOM    179  P    DG D  10      42.452  36.740  21.828  1.00 14.52     0.410 P 
ATOM    180  OP2  DG D  10      41.459  37.855  21.974  1.00 14.92    -0.624 OA
ATOM    181  OP1  DG D  10      41.964  35.317  21.834  1.00 16.08    -0.624 OA
BRANCH 179 182
ATOM    182  O5'  DG D  10      43.469  36.943  23.065  1.00 14.63    -0.268 OA
BRANCH 182 183
ATOM    183  C5'  DG D  10      43.170  37.820  24.137  1.00 14.28     0.187 C 
BRANCH 183 184
ATOM    184  C4'  DG D  10      42.676  37.024  25.319  1.00 14.53     0.175 C 
ATOM    185  C3'  DG D  10      42.968  37.623  26.686  1.00 16.36     0.161 C 
ATOM    186  C2'  DG D  10      44.262  36.923  27.094  1.00 15.07     0.087 C 
ATOM    187  C1'  DG D  10      43.998  35.540  26.540  1.00 13.41     0.210 C 
ATOM    188  O4'  DG D  10      43.320  35.726  25.307  1.00 13.85    -0.333 OA
BRANCH 185 189
ATOM    189  O3'  DG D  10      41.853  37.227  27.487  1.00 20.48    -0.271 OA
BRANCH 189 190
ATOM    190  P    DG D  11      41.647  37.836  28.962  1.00 20.71     0.410 P 
ATOM    191  OP2  DG D  11      42.472  39.030  29.248  1.00 22.10    -0.624 OA
ATOM    192  OP1  DG D  11      40.179  37.858  29.193  1.00 24.32    -0.624 OA
BRANCH 190 193
ATOM    193  O5'  DG D  11      42.220  36.695  29.896  1.00 19.33    -0.268 OA
BRANCH 193 194
ATOM    194  C5'  DG D  11      41.396  35.584  30.228  1.00 18.66     0.187 C 
BRANCH 194 195
ATOM    195  C4'  DG D  11      41.853  35.009  31.544  1.00 18.71     0.175 C 
ATOM    196  C3'  DG D  11      41.365  33.594  31.774  1.00 19.69     0.161 C 
ATOM    197  C2'  DG D  11      40.065  33.802  32.531  1.00 18.26     0.087 C 
ATOM    198  C1'  DG D  11      40.438  34.986  33.416  1.00 15.98     0.210 C 
ATOM    199  O4'  DG D  11      41.387  35.754  32.694  1.00 17.85    -0.333 OA
BRANCH 196 200
ATOM    200  O3'  DG D  11      42.338  33.017  32.632  1.00 24.65    -0.271 OA
BRANCH 200 201
ATOM    201  P    DT D  12      43.261  31.875  32.091  1.00 28.19     0.410 P 
ATOM    202  OP2  DT D  12      44.225  32.312  31.056  1.00 27.85    -0.624 OA
ATOM    203  OP1  DT D  12      43.718  31.199  33.340  1.00 29.91    -0.624 OA
BRANCH 201 204
ATOM    204  O5'  DT D  12      42.273  30.928  31.295  1.00 28.66    -0.268 OA
BRANCH 204 205
ATOM    205  C5'  DT D  12      42.842  29.896  30.556  1.00 29.00     0.187 C 
BRANCH 205 206
ATOM    206  C4'  DT D  12      42.055  28.636  30.718  1.00 28.07     0.175 C 
ATOM    207  C3'  DT D  12      40.833  28.698  31.612  1.00 29.44     0.161 C 
ATOM    208  C2'  DT D  12      41.148  27.705  32.723  1.00 29.37     0.087 C 
ATOM    209  C1'  DT D  12      42.137  26.743  32.048  1.00 27.26     0.211 C 
ATOM    210  O4'  DT D  12      42.870  27.543  31.168  1.00 26.37    -0.333 OA
BRANCH 207 211
ATOM    211  O3'  DT D  12      39.848  28.240  30.723  1.00 31.26    -0.271 OA
BRANCH 211 212
ATOM    212  P    DA D  13      38.518  29.073  30.477  1.00 34.05     0.410 P 
ATOM    213  OP2  DA D  13      37.475  28.170  29.905  1.00 31.89    -0.624 OA
ATOM    214  OP1  DA D  13      38.303  29.735  31.771  1.00 33.32    -0.624 OA
BRANCH 212 215
ATOM    215  O5'  DA D  13      39.041  30.156  29.447  1.00 31.02    -0.268 OA
BRANCH 215 216
ATOM    216  C5'  DA D  13      39.016  31.540  29.793  1.00 27.53     0.187 C 
BRANCH 216 217
ATOM    217  C4'  DA D  13      37.779  32.187  29.223  1.00 25.33     0.175 C 
ATOM    218  O4'  DA D  13      36.634  31.975  30.086  1.00 22.92    -0.333 OA
ATOM    219  C1'  DA D  13      36.073  33.223  30.503  1.00 20.98     0.210 C 
ATOM    220  C2'  DA D  13      37.160  34.277  30.246  1.00 23.30     0.087 C 
ATOM    221  C3'  DA D  13      37.893  33.706  29.041  1.00 26.45     0.161 C 
BRANCH 219 222
ATOM    222  N9   DA D  13      35.703  33.063  31.902  1.00 17.31    -0.272 N 
ATOM    223  C8   DA D  13      36.480  32.582  32.898  1.00 17.58     0.182 A 
ATOM    224  N7   DA D  13      35.859  32.427  34.037  1.00 17.72    -0.219 NA
ATOM    225  C5   DA D  13      34.590  32.881  33.790  1.00 14.33     0.155 A 
ATOM    226  C6   DA D  13      33.441  33.002  34.588  1.00 14.45     0.206 A 
ATOM    227  C4   DA D  13      34.473  33.294  32.467  1.00 15.76     0.170 A 
ATOM    228  N6   DA D  13      33.360  32.612  35.892  1.00 15.52    -0.125 N 
ATOM    229  N1   DA D  13      32.360  33.528  34.013  1.00 14.59    -0.202 NA
ATOM    230  C2   DA D  13      32.391  33.870  32.718  1.00 15.74     0.202 A 
ATOM    231  N3   DA D  13      33.392  33.774  31.857  1.00 15.60    -0.205 NA
ENDBRANCH 219 222
BRANCH 221 232
ATOM    232  O3'  DA D  13      37.215  34.069  27.855  1.00 30.43    -0.271 OA
BRANCH 232 233
ATOM    233  P    DA D  14      38.044  34.701  26.650  1.00 32.07     0.410 P 
ATOM    234  OP2  DA D  14      37.182  34.779  25.481  1.00 33.16    -0.624 OA
ATOM    235  OP1  DA D  14      38.680  35.926  27.204  1.00 33.96    -0.624 OA
BRANCH 233 236
ATOM    236  O5'  DA D  14      39.181  33.640  26.431  1.00 31.87    -0.268 OA
BRANCH 236 237
ATOM    237  C5'  DA D  14      40.354  34.032  25.738  1.00 30.81     0.187 C 
BRANCH 237 238
ATOM    238  C4'  DA D  14      41.339  32.896  25.750  1.00 31.39     0.175 C 
ATOM    239  O4'  DA D  14      40.784  31.767  26.473  1.00 30.66    -0.333 OA
ATOM    240  C1'  DA D  14      40.876  30.623  25.646  1.00 28.20     0.210 C 
ATOM    241  C2'  DA D  14      40.782  31.146  24.226  1.00 29.16     0.087 C 
ATOM    242  C3'  DA D  14      41.663  32.374  24.354  1.00 31.09     0.161 C 
BRANCH 240 243
ATOM    243  N9   DA D  14      39.851  29.682  26.050  1.00 24.41    -0.272 N 
ATOM    244  C4   DA D  14      40.154  28.497  26.660  1.00 21.62     0.170 A 
ATOM    245  N3   DA D  14      41.384  28.069  27.021  1.00 18.94    -0.205 NA
ATOM    246  C5   DA D  14      38.963  27.833  26.783  1.00 22.12     0.155 A 
ATOM    247  C2   DA D  14      41.310  26.816  27.518  1.00 18.83     0.202 A 
ATOM    248  N1   DA D  14      40.233  26.080  27.694  1.00 18.79    -0.202 NA
ATOM    249  C6   DA D  14      39.012  26.579  27.343  1.00 19.52     0.206 A 
ATOM    250  N6   DA D  14      37.926  25.863  27.556  1.00 21.07    -0.125 N 
ATOM    251  N7   DA D  14      37.906  28.598  26.288  1.00 24.53    -0.219 NA
ATOM    252  C8   DA D  14      38.492  29.702  25.889  1.00 24.70     0.182 A 
ENDBRANCH 240 243
BRANCH 242 253
ATOM    253  O3'  DA D  14      43.022  31.999  24.393  1.00 31.14    -0.271 OA
BRANCH 253 254
ATOM    254  P    DC D  15      43.850  31.802  23.030  1.00 30.59     0.410 P 
ATOM    255  OP1  DC D  15      45.186  32.416  23.277  1.00 31.75    -0.624 OA
ATOM    256  OP2  DC D  15      43.058  32.176  21.819  1.00 29.87    -0.624 OA
BRANCH 254 257
ATOM    257  O5'  DC D  15      44.048  30.214  23.085  1.00 30.76    -0.268 OA
BRANCH 257 258
ATOM    258  C5'  DC D  15      44.208  29.548  24.367  1.00 28.28     0.187 C 
BRANCH 258 259
ATOM    259  C4'  DC D  15      43.429  28.248  24.414  1.00 28.15     0.175 C 
ATOM    260  O4'  DC D  15      42.334  28.249  23.469  1.00 23.18    -0.333 OA
ATOM    261  C1'  DC D  15      42.433  27.141  22.574  1.00 22.58     0.211 C 
ATOM    262  C2'  DC D  15      43.854  26.618  22.707  1.00 24.52     0.087 C 
ATOM    263  C3'  DC D  15      44.222  26.980  24.133  1.00 28.37     0.161 C 
BRANCH 261 264
ATOM    264  N1   DC D  15      42.162  27.646  21.226  1.00 18.64    -0.256 N 
ATOM    265  C6   DC D  15      41.827  28.958  21.027  1.00 16.47     0.085 A 
ATOM    266  C5   DC D  15      41.497  29.414  19.822  1.00 15.01     0.060 A 
ATOM    267  C4   DC D  15      41.494  28.459  18.739  1.00 13.33     0.190 A 
ATOM    268  N3   DC D  15      41.898  27.204  18.916  1.00 13.89    -0.171 NA
ATOM    269  N4   DC D  15      41.061  28.822  17.545  1.00 15.28    -0.127 N 
ATOM    270  C2   DC D  15      42.226  26.757  20.131  1.00 18.12     0.353 A 
ATOM    271  O2   DC D  15      42.568  25.572  20.345  1.00 20.47    -0.244 OA
ENDBRANCH 261 264
BRANCH 263 272
ATOM    272  O3'  DC D  15      43.793  25.938  24.996  1.00 31.34    -0.271 OA
BRANCH 272 273
ATOM    273  P    DG D  16      44.819  25.338  26.046  1.00 32.78     0.410 P 
ATOM    274  OP1  DG D  16      45.803  24.518  25.281  1.00 34.59    -0.624 OA
ATOM    275  OP2  DG D  16      44.017  24.716  27.129  1.00 31.45    -0.624 OA
BRANCH 273 276
ATOM    276  O5'  DG D  16      45.526  26.629  26.633  1.00 31.83    -0.268 OA
BRANCH 276 277
ATOM    277  C5'  DG D  16      45.397  26.967  28.005  1.00 31.48     0.187 C 
BRANCH 277 278
ATOM    278  C4'  DG D  16      46.613  26.485  28.755  1.00 29.56     0.178 C 
ATOM    279  C3'  DG D  16      46.330  25.409  29.812  1.00 29.50     0.186 C 
ATOM    280  C2'  DG D  16      46.367  26.197  31.114  1.00 28.21     0.090 C 
ATOM    281  O3'  DG D  16      47.435  24.478  29.831  1.00 31.52    -0.221 OA
ATOM    282  C1'  DG D  16      47.470  27.171  30.797  1.00 24.75     0.210 C 
ATOM    283  O4'  DG D  16      47.211  27.585  29.475  1.00 27.49    -0.333 OA
BRANCH 282 284
ATOM    284  N9   DG D  16      47.522  28.360  31.629  1.00 21.33    -0.271 N 
ATOM    285  C4   DG D  16      48.627  29.132  31.846  1.00 19.88     0.188 A 
ATOM    286  N3   DG D  16      49.854  28.939  31.287  1.00 18.33    -0.038 NA
ATOM    287  C5   DG D  16      48.224  30.105  32.730  1.00 17.85     0.176 A 
ATOM    288  C2   DG D  16      50.722  29.824  31.687  1.00 15.82     0.773 A 
ATOM    289  N1   DG D  16      50.419  30.828  32.599  1.00 16.33    -0.016 NA
ATOM    290  N2   DG D  16      52.001  29.803  31.194  1.00 16.23     0.062 N 
ATOM    291  C6   DG D  16      49.172  31.047  33.175  1.00 15.94     0.316 A 
ATOM    292  O6   DG D  16      49.033  32.001  33.989  1.00 18.70    -0.263 OA
ATOM    293  N7   DG D  16      46.870  29.972  33.018  1.00 18.48    -0.217 NA
ATOM    294  C8   DG D  16      46.501  28.916  32.351  1.00 19.50     0.182 A 
ENDBRANCH 282 284
ENDBRANCH 277 278
ENDBRANCH 276 277
ENDBRANCH 273 276
ENDBRANCH 272 273
ENDBRANCH 263 272
ENDBRANCH 258 259
ENDBRANCH 257 258
ENDBRANCH 254 257
ENDBRANCH 253 254
ENDBRANCH 242 253
ENDBRANCH 237 238
ENDBRANCH 236 237
ENDBRANCH 233 236
ENDBRANCH 232 233
ENDBRANCH 221 232
ENDBRANCH 216 217
ENDBRANCH 215 216
ENDBRANCH 212 215
ENDBRANCH 211 212
ENDBRANCH 207 211
BRANCH 209 295
ATOM    295  N1   DT D  12      43.131  26.095  32.912  1.00 25.54    -0.256 N 
ATOM    296  C6   DT D  12      43.894  26.828  33.799  1.00 22.97     0.083 A 
ATOM    297  C5   DT D  12      44.869  26.293  34.560  1.00 22.23     0.053 A 
ATOM    298  C4   DT D  12      45.117  24.883  34.442  1.00 20.03     0.280 A 
ATOM    299  C7   DT D  12      45.700  27.071  35.529  1.00 23.27     0.038 C 
ATOM    300  O4   DT D  12      46.000  24.306  35.070  1.00 18.53    -0.265 OA
ATOM    301  N3   DT D  12      44.288  24.193  33.557  1.00 19.51    -0.153 NA
ATOM    302  C2   DT D  12      43.299  24.725  32.775  1.00 22.25     0.354 A 
ATOM    303  O2   DT D  12      42.618  24.051  32.010  1.00 24.24    -0.244 OA
ENDBRANCH 209 295
ENDBRANCH 205 206
ENDBRANCH 204 205
ENDBRANCH 201 204
ENDBRANCH 200 201
ENDBRANCH 196 200
BRANCH 198 304
ATOM    304  N9   DG D  11      39.344  35.891  33.752  1.00 15.12    -0.271 N 
ATOM    305  C8   DG D  11      38.169  35.579  34.395  1.00 13.13     0.182 A 
ATOM    306  N7   DG D  11      37.336  36.584  34.455  1.00 13.46    -0.217 NA
ATOM    307  C5   DG D  11      38.000  37.622  33.810  1.00 11.37     0.176 A 
ATOM    308  C6   DG D  11      37.567  38.931  33.545  1.00 10.16     0.316 A 
ATOM    309  C4   DG D  11      39.250  37.228  33.396  1.00 12.33     0.188 A 
ATOM    310  O6   DG D  11      36.478  39.412  33.775  1.00 10.86    -0.263 OA
ATOM    311  N1   DG D  11      38.571  39.684  32.918  1.00 10.07    -0.016 NA
ATOM    312  C2   DG D  11      39.825  39.198  32.557  1.00 11.41     0.773 A 
ATOM    313  N2   DG D  11      40.708  40.071  31.986  1.00 10.83     0.062 N 
ATOM    314  N3   DG D  11      40.200  37.947  32.756  1.00 11.83    -0.038 NA
ENDBRANCH 198 304
ENDBRANCH 194 195
ENDBRANCH 193 194
ENDBRANCH 190 193
ENDBRANCH 189 190
ENDBRANCH 185 189
BRANCH 187 315
ATOM    315  N9   DG D  10      45.227  34.804  26.280  1.00 11.23    -0.271 N 
ATOM    316  C8   DG D  10      45.562  33.533  26.711  1.00 12.20     0.182 A 
ATOM    317  N7   DG D  10      46.719  33.126  26.233  1.00 12.66    -0.217 NA
ATOM    318  C5   DG D  10      47.175  34.203  25.480  1.00 10.47     0.176 A 
ATOM    319  C4   DG D  10      46.272  35.242  25.506  1.00 10.52     0.188 A 
ATOM    320  C6   DG D  10      48.397  34.380  24.725  1.00 11.39     0.316 A 
ATOM    321  N3   DG D  10      46.367  36.445  24.909  1.00 10.98    -0.038 NA
ATOM    322  C2   DG D  10      47.473  36.562  24.183  1.00  8.78     0.773 A 
ATOM    323  N1   DG D  10      48.444  35.601  24.096  1.00  9.45    -0.016 NA
ATOM    324  N2   DG D  10      47.690  37.657  23.462  1.00 10.60     0.062 N 
ATOM    325  O6   DG D  10      49.371  33.599  24.606  1.00 10.46    -0.263 OA
ENDBRANCH 187 315
ENDBRANCH 183 184
ENDBRANCH 182 183
ENDBRANCH 179 182
ENDBRANCH 178 179
ENDBRANCH 168 178
ENDBRANCH   1 164
TORSDOF 92
ENDMDL
MODEL 4
REMARK VINA RESULT:      -0.3      3.497     12.792
REMARK WARNING: 32 MAX_TORS EXCEEDED!!!
REMARK  92 active torsions:
REMARK  status: ('A' for Active; 'I' for Inactive)
REMARK    1  A    between atoms: C5'_1  and  C4'_3 
REMARK    2  A    between atoms: C3'_5  and  O3'_6 
REMARK    3  A    between atoms: O3'_6  and  P_17 
REMARK    4  A    between atoms: C1'_8  and  N1_9 
REMARK    5  A    between atoms: P_17  and  O5'_19 
REMARK    6  A    between atoms: C5'_18  and  O5'_19 
REMARK    7  A    between atoms: C5'_18  and  C4'_20 
REMARK    8  A    between atoms: C3'_22  and  O3'_23 
REMARK    9  A    between atoms: O3'_23  and  P_39 
REMARK   10  A    between atoms: C1'_25  and  N9_36 
REMARK   11  A    between atoms: P_39  and  O5'_41 
REMARK   12  A    between atoms: C5'_40  and  O5'_41 
REMARK   13  A    between atoms: C5'_40  and  C4'_42 
REMARK   14  A    between atoms: C3'_44  and  O3'_45 
REMARK   15  A    between atoms: O3'_45  and  P_59 
REMARK   16  A    between atoms: C1'_47  and  N1_48 
REMARK   17  A    between atoms: P_59  and  O5'_61 
REMARK   18  A    between atoms: C5'_60  and  C4'_62 
REMARK   19  A    between atoms: C5'_60  and  O5'_61 
REMARK   20  A    between atoms: C3'_64  and  O3'_65 
REMARK   21  A    between atoms: O3'_65  and  P_79 
REMARK   22  A    between atoms: C1'_67  and  N1_68 
REMARK   23  A    between atoms: P_79  and  O5'_81 
REMARK   24  A    between atoms: C5'_80  and  C4'_82 
REMARK   25  A    between atoms: C5'_80  and  O5'_81 
REMARK   26  A    between atoms: C3'_84  and  O3'_85 
REMARK   27  A    between atoms: O3'_85  and  P_100 
REMARK   28  A    between atoms: C1'_87  and  N9_97 
REMARK   29  A    between atoms: P_100  and  O5'_102 
REMARK   30  A    between atoms: C5'_101  and  C4'_103 
REMARK   31  A    between atoms: C5'_101  and  O5'_102 
REMARK   32  A    between atoms: C3'_105  and  O3'_106 
REMARK   33  A    between atoms: O3'_106  and  P_119 
REMARK   34  A    between atoms: C1'_108  and  N1_109 
REMARK   35  A    between atoms: P_119  and  O5'_121 
REMARK   36  A    between atoms: C5'_120  and  O5'_121 
REMARK   37  A    between atoms: C5'_120  and  C4'_122 
REMARK   38  A    between atoms: C3'_124  and  O3'_125 
REMARK   39  A    between atoms: O3'_125  and  P_138 
REMARK   40  A    between atoms: C1'_127  and  N1_128 
REMARK   41  A    between atoms: P_138  and  O5'_140 
REMARK   42  A    between atoms: C5'_139  and  C4'_141 
REMARK   43  A    between atoms: C5'_139  and  O5'_140 
REMARK   44  A    between atoms: C3'_143  and  O3'_144 
REMARK   45  A    between atoms: O3'_144  and  P_159 
REMARK   46  A    between atoms: C1'_146  and  N9_156 
REMARK   47  A    between atoms: P_159  and  O5'_161 
REMARK   48  A    between atoms: C5'_160  and  O5'_161 
REMARK   49  A    between atoms: C5'_160  and  C4'_162 
REMARK   50  A    between atoms: C3'_164  and  O3'_165 
REMARK   51  A    between atoms: O3'_165  and  P_179 
REMARK   52  A    between atoms: C1'_167  and  N1_168 
REMARK   53  A    between atoms: P_179  and  O5'_181 
REMARK   54  A    between atoms: C5'_180  and  C4'_182 
REMARK   55  A    between atoms: C5'_180  and  O5'_181 
REMARK   56  A    between atoms: C3'_184  and  O3'_185 
REMARK   57  A    between atoms: O3'_185  and  P_201 
REMARK   58  A    between atoms: C1'_187  and  N9_198 
REMARK   59  A    between atoms: P_201  and  O5'_203 
REMARK   60  A    between atoms: C5'_202  and  O5'_203 
REMARK   61  A    between atoms: C5'_202  and  C4'_204 
REMARK   62  A    between atoms: C3'_206  and  O3'_207 
REMARK   63  A    between atoms: O3'_207  and  P_223 
REMARK   64  A    between atoms: C1'_209  and  N9_220 
REMARK   65  A    between atoms: P_223  and  O5'_225 
REMARK   66  A    between atoms: C5'_224  and  O5'_225 
REMARK   67  A    between atoms: C5'_224  and  C4'_226 
REMARK   68  A    between atoms: C3'_228  and  O3'_229 
REMARK   69  A    between atoms: O3'_229  and  P_243 
REMARK   70  A    between atoms: C1'_231  and  N1_232 
REMARK   71  A    between atoms: P_243  and  O5'_245 
REMARK   72  A    between atoms: C5'_244  and  C4'_246 
REMARK   73  A    between atoms: C5'_244  and  O5'_245 
REMARK   74  A    between atoms: C3'_248  and  O3'_249 
REMARK   75  A    between atoms: O3'_249  and  P_264 
REMARK   76  A    between atoms: C1'_251  and  N9_261 
REMARK   77  A    between atoms: P_264  and  O5'_266 
REMARK   78  A    between atoms: C5'_265  and  C4'_267 
REMARK   79  A    between atoms: C5'_265  and  O5'_266 
REMARK   80  A    between atoms: C3'_269  and  O3'_270 
REMARK   81  A    between atoms: O3'_270  and  P_285 
REMARK   82  A    between atoms: C1'_272  and  N9_282 
REMARK   83  A    between atoms: P_285  and  O5'_287 
REMARK   84  A    between atoms: C5'_286  and  O5'_287 
REMARK   85  A    between atoms: C5'_286  and  C4'_288 
REMARK   86  A    between atoms: C3'_290  and  O3'_291 
REMARK   87  A    between atoms: O3'_291  and  P_304 
REMARK   88  A    between atoms: C1'_293  and  N1_294 
REMARK   89  A    between atoms: P_304  and  O5'_306 
REMARK   90  A    between atoms: C5'_305  and  C4'_307 
REMARK   91  A    between atoms: C5'_305  and  O5'_306 
REMARK   92  A    between atoms: C1'_312  and  N9_323 
ROOT
HETATM    1  C5' BRU D   9      43.618  39.608  19.395  1.00 14.48     0.187 C 
ENDROOT
BRANCH   1   2
HETATM    2  O5' BRU D   9      43.937  38.256  19.126  1.00 12.82    -0.268 OA
BRANCH   2   3
HETATM    3  P   BRU D   9      42.959  37.098  19.578  1.00 11.11     0.410 P 
HETATM    4  OP1 BRU D   9      43.643  36.208  20.586  1.00 14.53    -0.624 OA
HETATM    5  OP2 BRU D   9      41.704  37.802  19.954  1.00 12.75    -0.624 OA
BRANCH   3   6
ATOM      6  O3'  DA D   8      42.853  36.189  18.284  1.00 11.43    -0.271 OA
BRANCH   6   7
ATOM      7  C3'  DA D   8      41.583  35.713  17.887  1.00 10.57     0.161 C 
ATOM      8  C4'  DA D   8      41.572  34.190  17.972  1.00 11.52     0.175 C 
ATOM      9  O4'  DA D   8      40.635  33.758  16.970  1.00 11.40    -0.333 OA
ATOM     10  C1'  DA D   8      40.468  34.784  15.976  1.00 11.23     0.210 C 
ATOM     11  C2'  DA D   8      41.327  35.970  16.410  1.00 12.23     0.087 C 
BRANCH   8  12
ATOM     12  C5'  DA D   8      41.167  33.608  19.303  1.00 13.06     0.187 C 
BRANCH  12  13
ATOM     13  O5'  DA D   8      39.793  33.810  19.527  1.00 11.03    -0.268 OA
BRANCH  13  14
ATOM     14  P    DA D   8      39.324  34.781  20.726  1.00 12.25     0.410 P 
ATOM     15  OP2  DA D   8      38.656  35.962  20.070  1.00 11.74    -0.624 OA
ATOM     16  OP1  DA D   8      40.445  35.011  21.650  1.00 15.55    -0.624 OA
BRANCH  14  17
ATOM     17  O3'  DC D   7      38.223  33.939  21.527  1.00 12.10    -0.271 OA
BRANCH  17  18
ATOM     18  C3'  DC D   7      38.199  32.504  21.385  1.00 11.74     0.161 C 
ATOM     19  C2'  DC D   7      39.100  31.779  22.383  1.00 11.76     0.087 C 
ATOM     20  C1'  DC D   7      38.414  30.416  22.532  1.00 12.42     0.211 C 
ATOM     21  O4'  DC D   7      37.049  30.621  22.186  1.00 12.34    -0.333 OA
ATOM     22  C4'  DC D   7      36.827  32.000  21.779  1.00 11.56     0.175 C 
BRANCH  20  23
ATOM     23  N1   DC D   7      38.978  29.494  21.519  1.00 11.09    -0.256 N 
ATOM     24  C2   DC D   7      40.015  28.653  21.931  1.00  9.80     0.353 A 
ATOM     25  O2   DC D   7      40.411  28.792  23.103  1.00 10.91    -0.244 OA
ATOM     26  N3   DC D   7      40.557  27.749  21.080  1.00  9.76    -0.171 NA
ATOM     27  C4   DC D   7      40.142  27.693  19.825  1.00 11.68     0.190 A 
ATOM     28  N4   DC D   7      40.714  26.780  18.991  1.00 10.83    -0.127 N 
ATOM     29  C5   DC D   7      39.089  28.568  19.343  1.00 10.32     0.060 A 
ATOM     30  C6   DC D   7      38.541  29.446  20.225  1.00 11.95     0.085 A 
ENDBRANCH  20  23
BRANCH  22  31
ATOM     31  C5'  DC D   7      35.793  32.039  20.689  1.00 14.18     0.187 C 
BRANCH  31  32
ATOM     32  O5'  DC D   7      34.933  33.163  20.921  1.00 16.43    -0.268 OA
BRANCH  32  33
ATOM     33  P    DC D   7      34.923  34.359  19.876  1.00 18.54     0.410 P 
ATOM     34  OP1  DC D   7      36.040  34.150  18.967  1.00 22.71    -0.624 OA
ATOM     35  OP2  DC D   7      33.549  34.480  19.395  1.00 19.79    -0.624 OA
BRANCH  33  36
ATOM     36  O3'  DC D   6      35.399  35.605  20.785  1.00 17.13    -0.271 OA
BRANCH  36  37
ATOM     37  C3'  DC D   6      34.617  36.034  21.877  1.00 14.94     0.161 C 
ATOM     38  C4'  DC D   6      34.244  37.489  21.621  1.00 15.77     0.175 C 
ATOM     39  O4'  DC D   6      35.239  38.257  22.321  1.00 13.81    -0.333 OA
ATOM     40  C1'  DC D   6      36.228  37.391  22.804  1.00 12.86     0.211 C 
ATOM     41  C2'  DC D   6      35.502  36.106  23.108  1.00 14.65     0.087 C 
BRANCH  38  42
ATOM     42  C5'  DC D   6      32.865  37.844  22.120  1.00 18.13     0.187 C 
BRANCH  42  43
ATOM     43  O5'  DC D   6      32.949  38.977  22.979  1.00 19.27    -0.268 OA
BRANCH  43  44
ATOM     44  P    DC D   6      32.326  38.922  24.455  1.00 19.84     0.410 P 
ATOM     45  OP1  DC D   6      32.902  40.100  25.154  1.00 24.35    -0.624 OA
ATOM     46  OP2  DC D   6      30.876  38.785  24.333  1.00 20.92    -0.624 OA
BRANCH  44  47
ATOM     47  O3'  DA D   5      33.023  37.622  25.055  1.00 19.93    -0.271 OA
BRANCH  47  48
ATOM     48  C3'  DA D   5      32.619  37.106  26.321  1.00 16.89     0.161 C 
ATOM     49  C4'  DA D   5      33.878  37.083  27.183  1.00 17.32     0.175 C 
ATOM     50  O4'  DA D   5      34.434  35.775  27.017  1.00 18.24    -0.333 OA
ATOM     51  C1'  DA D   5      33.546  34.957  26.233  1.00 15.77     0.210 C 
ATOM     52  C2'  DA D   5      32.195  35.640  26.252  1.00 16.34     0.087 C 
BRANCH  49  53
ATOM     53  C5'  DA D   5      33.673  37.452  28.636  1.00 17.61     0.187 C 
BRANCH  53  54
ATOM     54  O5'  DA D   5      34.897  37.288  29.348  1.00 19.33    -0.268 OA
BRANCH  54  55
ATOM     55  P    DA D   5      35.292  38.314  30.482  1.00 20.74     0.410 P 
ATOM     56  OP2  DA D   5      36.069  37.653  31.557  1.00 23.47    -0.624 OA
ATOM     57  OP1  DA D   5      34.049  39.086  30.811  1.00 23.99    -0.624 OA
BRANCH  55  58
ATOM     58  O3'  DT D   4      36.206  39.380  29.683  1.00 19.59    -0.271 OA
BRANCH  58  59
ATOM     59  C3'  DT D   4      36.043  40.802  29.874  1.00 18.10     0.161 C 
ATOM     60  C4'  DT D   4      36.505  41.512  28.592  1.00 15.82     0.175 C 
ATOM     61  O4'  DT D   4      37.809  42.054  28.873  1.00 16.38    -0.333 OA
ATOM     62  C1'  DT D   4      38.279  41.635  30.151  1.00 15.63     0.211 C 
ATOM     63  C2'  DT D   4      36.995  41.337  30.945  1.00 16.56     0.087 C 
BRANCH  60  64
ATOM     64  C5'  DT D   4      35.638  42.654  28.103  1.00 17.08     0.187 C 
BRANCH  64  65
ATOM     65  O5'  DT D   4      34.253  42.388  28.406  1.00 15.07    -0.268 OA
BRANCH  65  66
ATOM     66  P    DT D   4      33.324  43.558  28.966  1.00 15.11     0.410 P 
ATOM     67  OP1  DT D   4      32.155  43.746  28.018  1.00 18.00    -0.624 OA
ATOM     68  OP2  DT D   4      33.068  43.212  30.396  1.00 17.03    -0.624 OA
BRANCH  66  69
HETATM   69  O3' BRU D   3      34.217  44.827  28.773  1.00 15.24    -0.271 OA
BRANCH  69  70
HETATM   70  C3' BRU D   3      33.671  46.067  28.313  1.00 13.22     0.161 C 
HETATM   71  C4' BRU D   3      34.853  46.762  27.637  1.00 14.89     0.175 C 
HETATM   72  O4' BRU D   3      34.896  48.104  28.161  1.00 16.05    -0.333 OA
HETATM   73  C1' BRU D   3      34.402  48.040  29.494  1.00 15.34     0.211 C 
HETATM   74  C2' BRU D   3      33.219  47.066  29.390  1.00 12.90     0.087 C 
BRANCH  71  75
HETATM   75  C5' BRU D   3      34.939  46.754  26.133  1.00 17.61     0.187 C 
BRANCH  75  76
HETATM   76  O5' BRU D   3      34.059  45.799  25.572  1.00 15.66    -0.268 OA
BRANCH  76  77
HETATM   77  P   BRU D   3      34.704  44.619  24.709  1.00 16.77     0.410 P 
HETATM   78  OP1 BRU D   3      34.007  43.367  25.124  1.00 18.57    -0.624 OA
HETATM   79  OP2 BRU D   3      34.746  45.029  23.278  1.00 18.18    -0.624 OA
BRANCH  77  80
ATOM     80  O3'  DG D   2      36.203  44.510  25.235  1.00 17.32    -0.271 OA
BRANCH  80  81
ATOM     81  C3'  DG D   2      37.253  44.100  24.375  1.00 15.47     0.161 C 
ATOM     82  C2'  DG D   2      38.549  44.832  24.750  1.00 16.87     0.087 C 
ATOM     83  C1'  DG D   2      38.993  44.076  26.001  1.00 16.11     0.210 C 
ATOM     84  O4'  DG D   2      38.543  42.729  25.814  1.00 18.37    -0.333 OA
ATOM     85  C4'  DG D   2      37.535  42.653  24.782  1.00 18.34     0.175 C 
BRANCH  83  86
ATOM     86  N9   DG D   2      40.438  44.006  26.214  1.00 16.03    -0.272 N 
ATOM     87  C8   DG D   2      41.305  43.026  25.791  1.00 14.57     0.182 A 
ATOM     88  N7   DG D   2      42.532  43.192  26.225  1.00 16.34    -0.217 NA
ATOM     89  C5   DG D   2      42.464  44.373  26.984  1.00 13.99     0.175 A 
ATOM     90  C6   DG D   2      43.478  45.049  27.728  1.00 12.33     0.302 A 
ATOM     91  C4   DG D   2      41.186  44.904  26.953  1.00 12.94     0.172 A 
ATOM     92  O6   DG D   2      44.639  44.710  27.866  1.00 15.71    -0.263 OA
ATOM     93  N1   DG D   2      43.003  46.189  28.338  1.00 12.85    -0.174 NA
ATOM     94  C2   DG D   2      41.708  46.660  28.247  1.00 12.30     0.242 A 
ATOM     95  N2   DG D   2      41.417  47.846  28.905  1.00 15.13    -0.059 NA
ATOM     96  N3   DG D   2      40.731  46.032  27.543  1.00 14.89    -0.195 NA
ENDBRANCH  83  86
BRANCH  85  97
ATOM     97  C5'  DG D   2      37.986  41.733  23.673  1.00 20.11     0.187 C 
BRANCH  97  98
ATOM     98  O5'  DG D   2      39.149  42.248  23.033  1.00 21.44    -0.268 OA
BRANCH  98  99
ATOM     99  P    DG D   2      39.271  42.252  21.454  1.00 23.19     0.410 P 
ATOM    100  OP1  DG D   2      39.001  43.667  21.066  1.00 25.33    -0.624 OA
ATOM    101  OP2  DG D   2      40.478  41.571  20.963  1.00 23.21    -0.624 OA
BRANCH  99 102
ATOM    102  O3'  DC D   1      38.032  41.379  20.938  1.00 26.59    -0.271 OA
BRANCH 102 103
ATOM    103  C3'  DC D   1      38.186  40.623  19.745  1.00 27.88     0.161 C 
ATOM    104  C2'  DC D   1      37.123  39.543  19.741  1.00 26.06     0.087 C 
ATOM    105  C1'  DC D   1      35.909  40.362  19.368  1.00 24.51     0.211 C 
ATOM    106  O4'  DC D   1      36.375  41.316  18.400  1.00 29.50    -0.333 OA
ATOM    107  C4'  DC D   1      37.786  41.520  18.580  1.00 29.48     0.178 C 
BRANCH 105 108
ATOM    108  N1   DC D   1      34.768  39.665  18.762  1.00 21.38    -0.256 N 
ATOM    109  C6   DC D   1      34.941  38.718  17.789  1.00 19.62     0.085 A 
ATOM    110  C5   DC D   1      33.878  38.154  17.179  1.00 19.43     0.060 A 
ATOM    111  C4   DC D   1      32.581  38.555  17.627  1.00 17.00     0.190 A 
ATOM    112  N4   DC D   1      31.483  38.026  17.085  1.00 18.52    -0.127 N 
ATOM    113  N3   DC D   1      32.416  39.463  18.602  1.00 17.32    -0.171 NA
ATOM    114  C2   DC D   1      33.490  40.029  19.170  1.00 18.49     0.353 A 
ATOM    115  O2   DC D   1      33.366  40.882  20.056  1.00 18.51    -0.244 OA
ENDBRANCH 105 108
BRANCH 107 116
ATOM    116  C5'  DC D   1      38.526  41.277  17.284  1.00 31.78     0.214 C 
ATOM    117  O5'  DC D   1      39.101  39.967  17.275  1.00 34.90    -0.218 OA
ENDBRANCH 107 116
ENDBRANCH 102 103
ENDBRANCH  99 102
ENDBRANCH  98  99
ENDBRANCH  97  98
ENDBRANCH  85  97
ENDBRANCH  80  81
ENDBRANCH  77  80
ENDBRANCH  76  77
ENDBRANCH  75  76
ENDBRANCH  71  75
BRANCH  73 118
HETATM  118  N1  BRU D   3      34.020  49.397  29.894  1.00 13.25    -0.255 N 
HETATM  119  C2  BRU D   3      33.401  50.265  28.966  1.00 11.90     0.354 A 
HETATM  120  O2  BRU D   3      33.189  49.951  27.810  1.00 16.11    -0.244 OA
HETATM  121  N3  BRU D   3      33.053  51.489  29.443  1.00 12.15    -0.153 NA
HETATM  122  C4  BRU D   3      33.218  51.926  30.699  1.00 12.48     0.291 A 
HETATM  123  O4  BRU D   3      32.909  53.080  31.056  1.00 16.38    -0.264 OA
HETATM  124  C5  BRU D   3      33.871  50.973  31.528  1.00 14.67     0.110 A 
HETATM  125  C6  BRU D   3      34.238  49.796  31.110  1.00 13.17     0.094 A 
HETATM  126 BR   BRU D   3      34.297  51.538  33.511  1.00 24.07    -0.043 Br
ENDBRANCH  73 118
ENDBRANCH  69  70
ENDBRANCH  66  69
ENDBRANCH  65  66
ENDBRANCH  64  65
ENDBRANCH  60  64
BRANCH  62 127
ATOM    127  N1   DT D   4      39.174  42.721  30.644  1.00 13.98    -0.256 N 
ATOM    128  C2   DT D   4      40.389  42.888  30.041  1.00 13.56     0.354 A 
ATOM    129  O2   DT D   4      40.768  42.130  29.149  1.00 16.57    -0.244 OA
ATOM    130  N3   DT D   4      41.146  43.967  30.479  1.00 12.35    -0.153 NA
ATOM    131  C4   DT D   4      40.771  44.879  31.462  1.00 11.46     0.280 A 
ATOM    132  O4   DT D   4      41.490  45.849  31.749  1.00 13.76    -0.265 OA
ATOM    133  C5   DT D   4      39.498  44.589  32.095  1.00 12.51     0.053 A 
ATOM    134  C7   DT D   4      39.040  45.461  33.216  1.00 14.43     0.038 C 
ATOM    135  C6   DT D   4      38.768  43.559  31.663  1.00 14.14     0.083 A 
ENDBRANCH  62 127
ENDBRANCH  58  59
ENDBRANCH  55  58
ENDBRANCH  54  55
ENDBRANCH  53  54
ENDBRANCH  49  53
BRANCH  51 136
ATOM    136  N9   DA D   5      33.583  33.638  26.880  1.00 14.16    -0.272 N 
ATOM    137  C4   DA D   5      34.465  32.623  26.578  1.00 14.21     0.170 A 
ATOM    138  C5   DA D   5      34.278  31.668  27.567  1.00 12.40     0.155 A 
ATOM    139  N3   DA D   5      35.339  32.559  25.566  1.00 13.46    -0.205 NA
ATOM    140  C6   DA D   5      35.061  30.517  27.511  1.00 12.04     0.206 A 
ATOM    141  N7   DA D   5      33.292  32.064  28.433  1.00 14.47    -0.219 NA
ATOM    142  N6   DA D   5      34.953  29.527  28.419  1.00 12.46    -0.125 N 
ATOM    143  N1   DA D   5      35.955  30.406  26.500  1.00 13.98    -0.202 NA
ATOM    144  C2   DA D   5      36.040  31.423  25.619  1.00 14.25     0.202 A 
ATOM    145  C8   DA D   5      32.883  33.221  27.963  1.00 14.09     0.182 A 
ENDBRANCH  51 136
ENDBRANCH  47  48
ENDBRANCH  44  47
ENDBRANCH  43  44
ENDBRANCH  42  43
ENDBRANCH  38  42
BRANCH  40 146
ATOM    146  N1   DC D   6      36.937  38.059  23.934  1.00 11.89    -0.256 N 
ATOM    147  C2   DC D   6      38.342  38.073  23.898  1.00 11.45     0.353 A 
ATOM    148  O2   DC D   6      38.889  37.660  22.898  1.00 12.57    -0.244 OA
ATOM    149  N3   DC D   6      39.039  38.546  24.965  1.00 11.17    -0.171 NA
ATOM    150  C4   DC D   6      38.388  39.035  26.015  1.00 11.08     0.190 A 
ATOM    151  N4   DC D   6      39.088  39.482  27.072  1.00 10.70    -0.127 N 
ATOM    152  C5   DC D   6      36.945  39.087  26.047  1.00 10.83     0.060 A 
ATOM    153  C6   DC D   6      36.277  38.590  24.991  1.00 11.79     0.085 A 
ENDBRANCH  40 146
ENDBRANCH  36  37
ENDBRANCH  33  36
ENDBRANCH  32  33
ENDBRANCH  31  32
ENDBRANCH  22  31
ENDBRANCH  17  18
ENDBRANCH  14  17
ENDBRANCH  13  14
ENDBRANCH  12  13
ENDBRANCH   8  12
BRANCH  10 154
ATOM    154  N9   DA D   8      39.057  35.168  15.994  1.00 10.83    -0.272 N 
ATOM    155  C4   DA D   8      38.052  34.409  15.448  1.00  9.99     0.170 A 
ATOM    156  N3   DA D   8      38.179  33.218  14.803  1.00 10.21    -0.205 NA
ATOM    157  C5   DA D   8      36.883  35.083  15.726  1.00 10.31     0.155 A 
ATOM    158  C2   DA D   8      37.008  32.750  14.447  1.00 10.39     0.202 A 
ATOM    159  N1   DA D   8      35.788  33.299  14.639  1.00 11.14    -0.202 NA
ATOM    160  C6   DA D   8      35.692  34.463  15.322  1.00 10.09     0.206 A 
ATOM    161  N6   DA D   8      34.478  34.918  15.598  1.00 11.37    -0.125 N 
ATOM    162  N7   DA D   8      37.159  36.284  16.404  1.00 10.47    -0.219 NA
ATOM    163  C8   DA D   8      38.469  36.282  16.518  1.00 11.39     0.182 A 
ENDBRANCH  10 154
ENDBRANCH   6   7
ENDBRANCH   3   6
ENDBRANCH   2   3
ENDBRANCH   1   2
BRANCH   1 164
HETATM  164  C4' BRU D   9      44.469  40.132  20.529  1.00 14.07     0.175 C 
HETATM  165  O4' BRU D   9      44.919  41.480  20.201  1.00 13.32    -0.333 OA
HETATM  166  C1' BRU D   9      45.139  42.210  21.405  1.00 13.84     0.211 C 
HETATM  167  C2' BRU D   9      44.558  41.403  22.547  1.00 12.11     0.087 C 
HETATM  168  C3' BRU D   9      43.772  40.293  21.865  1.00 15.00     0.161 C 
BRANCH 166 169
HETATM  169  N1  BRU D   9      44.376  43.460  21.320  1.00 13.67    -0.255 N 
HETATM  170  C2  BRU D   9      44.676  44.453  22.181  1.00 11.22     0.354 A 
HETATM  171  O2  BRU D   9      45.523  44.308  23.034  1.00 13.50    -0.244 OA
HETATM  172  N3  BRU D   9      43.964  45.632  22.014  1.00 11.85    -0.153 NA
HETATM  173  C4  BRU D   9      43.024  45.836  21.084  1.00 10.30     0.291 A 
HETATM  174  O4  BRU D   9      42.496  46.970  20.933  1.00 12.93    -0.264 OA
HETATM  175  C5  BRU D   9      42.772  44.678  20.268  1.00 12.08     0.110 A 
HETATM  176  C6  BRU D   9      43.427  43.575  20.407  1.00 13.06     0.094 A 
HETATM  177 BR   BRU D   9      41.303  45.059  18.856  1.00 15.13    -0.043 Br
ENDBRANCH 166 169
BRANCH 168 178
HETATM  178  O3' BRU D   9      43.846  39.098  22.629  1.00 13.15    -0.271 OA
BRANCH 178 179
ATOM    179  P    DG D  10      42.710  38.829  23.695  1.00 14.52     0.410 P 
ATOM    180  OP2  DG D  10      41.781  39.995  23.862  1.00 14.92    -0.624 OA
ATOM    181  OP1  DG D  10      42.137  37.476  23.370  1.00 16.08    -0.624 OA
BRANCH 179 182
ATOM    182  O5'  DG D  10      43.494  38.733  25.102  1.00 14.63    -0.268 OA
BRANCH 182 183
ATOM    183  C5'  DG D  10      42.993  39.353  26.275  1.00 14.28     0.187 C 
BRANCH 183 184
ATOM    184  C4'  DG D  10      42.371  38.312  27.171  1.00 14.53     0.175 C 
ATOM    185  C3'  DG D  10      42.455  38.591  28.664  1.00 16.36     0.161 C 
ATOM    186  C2'  DG D  10      43.705  37.821  29.083  1.00 15.07     0.087 C 
ATOM    187  C1'  DG D  10      43.566  36.596  28.206  1.00 13.41     0.210 C 
ATOM    188  O4'  DG D  10      43.054  37.050  26.963  1.00 13.85    -0.333 OA
BRANCH 185 189
ATOM    189  O3'  DG D  10      41.256  38.023  29.195  1.00 20.48    -0.271 OA
BRANCH 189 190
ATOM    190  P    DG D  11      40.704  38.475  30.636  1.00 20.71     0.410 P 
ATOM    191  OP2  DG D  11      41.310  39.721  31.157  1.00 22.10    -0.624 OA
ATOM    192  OP1  DG D  11      39.227  38.321  30.574  1.00 24.32    -0.624 OA
BRANCH 190 193
ATOM    193  O5'  DG D  11      41.225  37.324  31.589  1.00 19.33    -0.268 OA
BRANCH 193 194
ATOM    194  C5'  DG D  11      40.606  36.044  31.541  1.00 18.66     0.187 C 
BRANCH 194 195
ATOM    195  C4'  DG D  11      41.124  35.205  32.680  1.00 18.71     0.175 C 
ATOM    196  C3'  DG D  11      40.859  33.725  32.494  1.00 19.69     0.161 C 
ATOM    197  C2'  DG D  11      39.530  33.528  33.201  1.00 18.26     0.087 C 
ATOM    198  C1'  DG D  11      39.697  34.466  34.390  1.00 15.98     0.210 C 
ATOM    199  O4'  DG D  11      40.527  35.532  33.957  1.00 17.85    -0.333 OA
BRANCH 196 200
ATOM    200  O3'  DG D  11      41.894  33.084  33.223  1.00 24.65    -0.271 OA
BRANCH 200 201
ATOM    201  P    DT D  12      42.972  32.248  32.456  1.00 28.19     0.410 P 
ATOM    202  OP2  DT D  12      43.403  32.844  31.172  1.00 27.85    -0.624 OA
ATOM    203  OP1  DT D  12      43.958  31.916  33.525  1.00 29.91    -0.624 OA
BRANCH 201 204
ATOM    204  O5'  DT D  12      42.198  30.941  32.011  1.00 28.66    -0.268 OA
BRANCH 204 205
ATOM    205  C5'  DT D  12      42.795  30.152  31.033  1.00 29.00     0.187 C 
BRANCH 205 206
ATOM    206  C4'  DT D  12      42.130  28.816  30.955  1.00 28.07     0.175 C 
ATOM    207  C3'  DT D  12      40.820  28.654  31.700  1.00 29.44     0.161 C 
ATOM    208  C2'  DT D  12      41.117  27.562  32.719  1.00 29.37     0.087 C 
ATOM    209  C1'  DT D  12      42.266  26.786  32.059  1.00 27.26     0.211 C 
ATOM    210  O4'  DT D  12      43.001  27.753  31.370  1.00 26.37    -0.333 OA
BRANCH 207 211
ATOM    211  O3'  DT D  12      39.987  28.225  30.655  1.00 31.26    -0.271 OA
BRANCH 211 212
ATOM    212  P    DA D  13      38.654  29.010  30.297  1.00 34.05     0.410 P 
ATOM    213  OP2  DA D  13      37.781  28.135  29.459  1.00 31.89    -0.624 OA
ATOM    214  OP1  DA D  13      38.193  29.486  31.609  1.00 33.32    -0.624 OA
BRANCH 212 215
ATOM    215  O5'  DA D  13      39.248  30.245  29.504  1.00 31.02    -0.268 OA
BRANCH 215 216
ATOM    216  C5'  DA D  13      39.094  31.566  30.019  1.00 27.53     0.187 C 
BRANCH 216 217
ATOM    217  C4'  DA D  13      37.898  32.227  29.381  1.00 25.33     0.175 C 
ATOM    218  O4'  DA D  13      36.688  31.952  30.130  1.00 22.92    -0.333 OA
ATOM    219  C1'  DA D  13      36.071  33.167  30.564  1.00 20.98     0.210 C 
ATOM    220  C2'  DA D  13      37.157  34.248  30.459  1.00 23.30     0.087 C 
ATOM    221  C3'  DA D  13      37.999  33.755  29.292  1.00 26.45     0.161 C 
BRANCH 219 222
ATOM    222  N9   DA D  13      35.587  32.924  31.916  1.00 17.31    -0.272 N 
ATOM    223  C8   DA D  13      35.856  31.853  32.695  1.00 17.58     0.182 A 
ATOM    224  N7   DA D  13      35.192  31.826  33.820  1.00 17.72    -0.219 NA
ATOM    225  C5   DA D  13      34.463  32.987  33.806  1.00 14.33     0.155 A 
ATOM    226  C6   DA D  13      33.564  33.567  34.714  1.00 14.45     0.206 A 
ATOM    227  C4   DA D  13      34.703  33.694  32.632  1.00 15.76     0.170 A 
ATOM    228  N6   DA D  13      33.180  33.000  35.892  1.00 15.52    -0.125 N 
ATOM    229  N1   DA D  13      33.051  34.751  34.381  1.00 14.59    -0.202 NA
ATOM    230  C2   DA D  13      33.365  35.310  33.205  1.00 15.74     0.202 A 
ATOM    231  N3   DA D  13      34.165  34.851  32.254  1.00 15.60    -0.205 NA
ENDBRANCH 219 222
BRANCH 221 232
ATOM    232  O3'  DA D  13      37.418  34.174  28.074  1.00 30.43    -0.271 OA
BRANCH 232 233
ATOM    233  P    DA D  14      38.266  35.091  27.085  1.00 32.07     0.410 P 
ATOM    234  OP2  DA D  14      37.479  35.335  25.885  1.00 33.16    -0.624 OA
ATOM    235  OP1  DA D  14      38.753  36.226  27.914  1.00 33.96    -0.624 OA
BRANCH 233 236
ATOM    236  O5'  DA D  14      39.504  34.181  26.761  1.00 31.87    -0.268 OA
BRANCH 236 237
ATOM    237  C5'  DA D  14      40.628  34.763  26.123  1.00 30.81     0.187 C 
BRANCH 237 238
ATOM    238  C4'  DA D  14      41.804  33.834  26.248  1.00 31.39     0.175 C 
ATOM    239  O4'  DA D  14      41.392  32.597  26.884  1.00 30.66    -0.333 OA
ATOM    240  C1'  DA D  14      41.802  31.519  26.063  1.00 28.20     0.210 C 
ATOM    241  C2'  DA D  14      41.782  32.063  24.649  1.00 29.16     0.087 C 
ATOM    242  C3'  DA D  14      42.390  33.430  24.899  1.00 31.09     0.161 C 
BRANCH 240 243
ATOM    243  N9   DA D  14      40.934  30.389  26.326  1.00 24.41    -0.272 N 
ATOM    244  C4   DA D  14      41.404  29.224  26.866  1.00 21.62     0.170 A 
ATOM    245  N3   DA D  14      42.668  28.980  27.277  1.00 18.94    -0.205 NA
ATOM    246  C5   DA D  14      40.341  28.361  26.857  1.00 22.12     0.155 A 
ATOM    247  C2   DA D  14      42.785  27.695  27.673  1.00 18.83     0.202 A 
ATOM    248  N1   DA D  14      41.843  26.776  27.720  1.00 18.79    -0.202 NA
ATOM    249  C6   DA D  14      40.576  27.090  27.325  1.00 19.52     0.206 A 
ATOM    250  N6   DA D  14      39.621  26.187  27.409  1.00 21.07    -0.125 N 
ATOM    251  N7   DA D  14      39.196  28.977  26.350  1.00 24.53    -0.219 NA
ATOM    252  C8   DA D  14      39.603  30.193  26.075  1.00 24.70     0.182 A 
ENDBRANCH 240 243
BRANCH 242 253
ATOM    253  O3'  DA D  14      43.780  33.317  25.105  1.00 31.14    -0.271 OA
BRANCH 253 254
ATOM    254  P    DC D  15      44.792  33.355  23.858  1.00 30.59     0.410 P 
ATOM    255  OP1  DC D  15      45.952  34.180  24.303  1.00 31.75    -0.624 OA
ATOM    256  OP2  DC D  15      44.101  33.657  22.567  1.00 29.87    -0.624 OA
BRANCH 254 257
ATOM    257  O5'  DC D  15      45.270  31.827  23.877  1.00 30.76    -0.268 OA
BRANCH 257 258
ATOM    258  C5'  DC D  15      45.481  31.150  25.146  1.00 28.28     0.187 C 
BRANCH 258 259
ATOM    259  C4'  DC D  15      45.083  29.688  25.065  1.00 28.15     0.175 C 
ATOM    260  O4'  DC D  15      44.004  29.483  24.123  1.00 23.18    -0.333 OA
ATOM    261  C1'  DC D  15      44.376  28.534  23.123  1.00 22.58     0.211 C 
ATOM    262  C2'  DC D  15      45.888  28.405  23.205  1.00 24.52     0.087 C 
ATOM    263  C3'  DC D  15      46.181  28.717  24.660  1.00 28.37     0.161 C 
BRANCH 261 264
ATOM    264  N1   DC D  15      43.943  29.072  21.831  1.00 18.64    -0.256 N 
ATOM    265  C6   DC D  15      43.370  30.312  21.749  1.00 16.47     0.085 A 
ATOM    266  C5   DC D  15      42.898  30.782  20.599  1.00 15.01     0.060 A 
ATOM    267  C4   DC D  15      43.003  29.918  19.445  1.00 13.33     0.190 A 
ATOM    268  N3   DC D  15      43.633  28.748  19.508  1.00 13.89    -0.171 NA
ATOM    269  N4   DC D  15      42.446  30.277  18.304  1.00 15.28    -0.127 N 
ATOM    270  C2   DC D  15      44.103  28.286  20.669  1.00 18.12     0.353 A 
ATOM    271  O2   DC D  15      44.661  27.171  20.776  1.00 20.47    -0.244 OA
ENDBRANCH 261 264
BRANCH 263 272
ATOM    272  O3'  DC D  15      46.072  27.520  25.417  1.00 31.34    -0.271 OA
BRANCH 272 273
ATOM    273  P    DG D  16      47.196  27.179  26.483  1.00 32.78     0.410 P 
ATOM    274  OP1  DG D  16      48.365  28.057  26.186  1.00 34.59    -0.624 OA
ATOM    275  OP2  DG D  16      47.356  25.703  26.486  1.00 31.45    -0.624 OA
BRANCH 273 276
ATOM    276  O5'  DG D  16      46.528  27.608  27.855  1.00 31.83    -0.268 OA
BRANCH 276 277
ATOM    277  C5'  DG D  16      46.360  26.669  28.905  1.00 31.48     0.187 C 
BRANCH 277 278
ATOM    278  C4'  DG D  16      47.329  26.982  30.016  1.00 29.56     0.178 C 
ATOM    279  C3'  DG D  16      46.733  26.906  31.428  1.00 29.50     0.186 C 
ATOM    280  C2'  DG D  16      46.519  28.371  31.782  1.00 28.21     0.090 C 
ATOM    281  O3'  DG D  16      47.736  26.380  32.327  1.00 31.52    -0.221 OA
ATOM    282  C1'  DG D  16      47.729  28.978  31.125  1.00 24.75     0.210 C 
ATOM    283  O4'  DG D  16      47.817  28.333  29.875  1.00 27.49    -0.333 OA
BRANCH 282 284
ATOM    284  N9   DG D  16      47.666  30.408  30.881  1.00 21.33    -0.271 N 
ATOM    285  C4   DG D  16      48.734  31.218  30.624  1.00 19.88     0.188 A 
ATOM    286  N3   DG D  16      50.030  30.816  30.514  1.00 18.33    -0.038 NA
ATOM    287  C5   DG D  16      48.211  32.486  30.513  1.00 17.85     0.176 A 
ATOM    288  C2   DG D  16      50.837  31.811  30.278  1.00 15.82     0.773 A 
ATOM    289  N1   DG D  16      50.409  33.129  30.177  1.00 16.33    -0.016 NA
ATOM    290  N2   DG D  16      52.177  31.582  30.100  1.00 16.23     0.062 N 
ATOM    291  C6   DG D  16      49.090  33.561  30.278  1.00 15.94     0.316 A 
ATOM    292  O6   DG D  16      48.839  34.792  30.164  1.00 18.70    -0.263 OA
ATOM    293  N7   DG D  16      46.827  32.456  30.647  1.00 18.48    -0.217 NA
ATOM    294  C8   DG D  16      46.552  31.203  30.876  1.00 19.50     0.182 A 
ENDBRANCH 282 284
ENDBRANCH 277 278
ENDBRANCH 276 277
ENDBRANCH 273 276
ENDBRANCH 272 273
ENDBRANCH 263 272
ENDBRANCH 258 259
ENDBRANCH 257 258
ENDBRANCH 254 257
ENDBRANCH 253 254
ENDBRANCH 242 253
ENDBRANCH 237 238
ENDBRANCH 236 237
ENDBRANCH 233 236
ENDBRANCH 232 233
ENDBRANCH 221 232
ENDBRANCH 216 217
ENDBRANCH 215 216
ENDBRANCH 212 215
ENDBRANCH 211 212
ENDBRANCH 207 211
BRANCH 209 295
ATOM    295  N1   DT D  12      43.225  26.127  32.954  1.00 25.54    -0.256 N 
ATOM    296  C6   DT D  12      44.004  26.855  33.829  1.00 22.97     0.083 A 
ATOM    297  C5   DT D  12      44.949  26.306  34.618  1.00 22.23     0.053 A 
ATOM    298  C4   DT D  12      45.145  24.886  34.543  1.00 20.03     0.280 A 
ATOM    299  C7   DT D  12      45.797  27.080  35.575  1.00 23.27     0.038 C 
ATOM    300  O4   DT D  12      45.998  24.294  35.199  1.00 18.53    -0.265 OA
ATOM    301  N3   DT D  12      44.300  24.201  33.668  1.00 19.51    -0.153 NA
ATOM    302  C2   DT D  12      43.342  24.748  32.858  1.00 22.25     0.354 A 
ATOM    303  O2   DT D  12      42.645  24.077  32.104  1.00 24.24    -0.244 OA
ENDBRANCH 209 295
ENDBRANCH 205 206
ENDBRANCH 204 205
ENDBRANCH 201 204
ENDBRANCH 200 201
ENDBRANCH 196 200
BRANCH 198 304
ATOM    304  N9   DG D  11      38.470  35.076  34.891  1.00 15.12    -0.271 N 
ATOM    305  C8   DG D  11      37.410  34.444  35.497  1.00 13.13     0.182 A 
ATOM    306  N7   DG D  11      36.405  35.244  35.736  1.00 13.46    -0.217 NA
ATOM    307  C5   DG D  11      36.826  36.479  35.255  1.00 11.37     0.176 A 
ATOM    308  C6   DG D  11      36.139  37.704  35.216  1.00 10.16     0.316 A 
ATOM    309  C4   DG D  11      38.106  36.408  34.759  1.00 12.33     0.188 A 
ATOM    310  O6   DG D  11      34.992  37.921  35.542  1.00 10.86    -0.263 OA
ATOM    311  N1   DG D  11      36.949  38.727  34.700  1.00 10.07    -0.016 NA
ATOM    312  C2   DG D  11      38.253  38.558  34.241  1.00 11.41     0.773 A 
ATOM    313  N2   DG D  11      38.923  39.665  33.803  1.00 10.83     0.062 N 
ATOM    314  N3   DG D  11      38.868  37.389  34.226  1.00 11.83    -0.038 NA
ENDBRANCH 198 304
ENDBRANCH 194 195
ENDBRANCH 193 194
ENDBRANCH 190 193
ENDBRANCH 189 190
ENDBRANCH 185 189
BRANCH 187 315
ATOM    315  N9   DG D  10      44.843  35.940  27.964  1.00 11.23    -0.271 N 
ATOM    316  C8   DG D  10      45.156  34.604  28.137  1.00 12.20     0.182 A 
ATOM    317  N7   DG D  10      46.381  34.318  27.749  1.00 12.66    -0.217 NA
ATOM    318  C5   DG D  10      46.901  35.540  27.335  1.00 10.47     0.176 A 
ATOM    319  C4   DG D  10      45.970  36.544  27.468  1.00 10.52     0.188 A 
ATOM    320  C6   DG D  10      48.210  35.887  26.824  1.00 11.39     0.316 A 
ATOM    321  N3   DG D  10      46.107  37.853  27.182  1.00 10.98    -0.038 NA
ATOM    322  C2   DG D  10      47.299  38.134  26.667  1.00  8.78     0.773 A 
ATOM    323  N1   DG D  10      48.304  37.220  26.503  1.00  9.45    -0.016 NA
ATOM    324  N2   DG D  10      47.578  39.366  26.254  1.00 10.60     0.062 N 
ATOM    325  O6   DG D  10      49.216  35.154  26.670  1.00 10.46    -0.263 OA
ENDBRANCH 187 315
ENDBRANCH 183 184
ENDBRANCH 182 183
ENDBRANCH 179 182
ENDBRANCH 178 179
ENDBRANCH 168 178
ENDBRANCH   1 164
TORSDOF 92
ENDMDL
MODEL 5
REMARK VINA RESULT:      -0.3      1.826      2.130
REMARK WARNING: 32 MAX_TORS EXCEEDED!!!
REMARK  92 active torsions:
REMARK  status: ('A' for Active; 'I' for Inactive)
REMARK    1  A    between atoms: C5'_1  and  C4'_3 
REMARK    2  A    between atoms: C3'_5  and  O3'_6 
REMARK    3  A    between atoms: O3'_6  and  P_17 
REMARK    4  A    between atoms: C1'_8  and  N1_9 
REMARK    5  A    between atoms: P_17  and  O5'_19 
REMARK    6  A    between atoms: C5'_18  and  O5'_19 
REMARK    7  A    between atoms: C5'_18  and  C4'_20 
REMARK    8  A    between atoms: C3'_22  and  O3'_23 
REMARK    9  A    between atoms: O3'_23  and  P_39 
REMARK   10  A    between atoms: C1'_25  and  N9_36 
REMARK   11  A    between atoms: P_39  and  O5'_41 
REMARK   12  A    between atoms: C5'_40  and  O5'_41 
REMARK   13  A    between atoms: C5'_40  and  C4'_42 
REMARK   14  A    between atoms: C3'_44  and  O3'_45 
REMARK   15  A    between atoms: O3'_45  and  P_59 
REMARK   16  A    between atoms: C1'_47  and  N1_48 
REMARK   17  A    between atoms: P_59  and  O5'_61 
REMARK   18  A    between atoms: C5'_60  and  C4'_62 
REMARK   19  A    between atoms: C5'_60  and  O5'_61 
REMARK   20  A    between atoms: C3'_64  and  O3'_65 
REMARK   21  A    between atoms: O3'_65  and  P_79 
REMARK   22  A    between atoms: C1'_67  and  N1_68 
REMARK   23  A    between atoms: P_79  and  O5'_81 
REMARK   24  A    between atoms: C5'_80  and  C4'_82 
REMARK   25  A    between atoms: C5'_80  and  O5'_81 
REMARK   26  A    between atoms: C3'_84  and  O3'_85 
REMARK   27  A    between atoms: O3'_85  and  P_100 
REMARK   28  A    between atoms: C1'_87  and  N9_97 
REMARK   29  A    between atoms: P_100  and  O5'_102 
REMARK   30  A    between atoms: C5'_101  and  C4'_103 
REMARK   31  A    between atoms: C5'_101  and  O5'_102 
REMARK   32  A    between atoms: C3'_105  and  O3'_106 
REMARK   33  A    between atoms: O3'_106  and  P_119 
REMARK   34  A    between atoms: C1'_108  and  N1_109 
REMARK   35  A    between atoms: P_119  and  O5'_121 
REMARK   36  A    between atoms: C5'_120  and  O5'_121 
REMARK   37  A    between atoms: C5'_120  and  C4'_122 
REMARK   38  A    between atoms: C3'_124  and  O3'_125 
REMARK   39  A    between atoms: O3'_125  and  P_138 
REMARK   40  A    between atoms: C1'_127  and  N1_128 
REMARK   41  A    between atoms: P_138  and  O5'_140 
REMARK   42  A    between atoms: C5'_139  and  C4'_141 
REMARK   43  A    between atoms: C5'_139  and  O5'_140 
REMARK   44  A    between atoms: C3'_143  and  O3'_144 
REMARK   45  A    between atoms: O3'_144  and  P_159 
REMARK   46  A    between atoms: C1'_146  and  N9_156 
REMARK   47  A    between atoms: P_159  and  O5'_161 
REMARK   48  A    between atoms: C5'_160  and  O5'_161 
REMARK   49  A    between atoms: C5'_160  and  C4'_162 
REMARK   50  A    between atoms: C3'_164  and  O3'_165 
REMARK   51  A    between atoms: O3'_165  and  P_179 
REMARK   52  A    between atoms: C1'_167  and  N1_168 
REMARK   53  A    between atoms: P_179  and  O5'_181 
REMARK   54  A    between atoms: C5'_180  and  C4'_182 
REMARK   55  A    between atoms: C5'_180  and  O5'_181 
REMARK   56  A    between atoms: C3'_184  and  O3'_185 
REMARK   57  A    between atoms: O3'_185  and  P_201 
REMARK   58  A    between atoms: C1'_187  and  N9_198 
REMARK   59  A    between atoms: P_201  and  O5'_203 
REMARK   60  A    between atoms: C5'_202  and  O5'_203 
REMARK   61  A    between atoms: C5'_202  and  C4'_204 
REMARK   62  A    between atoms: C3'_206  and  O3'_207 
REMARK   63  A    between atoms: O3'_207  and  P_223 
REMARK   64  A    between atoms: C1'_209  and  N9_220 
REMARK   65  A    between atoms: P_223  and  O5'_225 
REMARK   66  A    between atoms: C5'_224  and  O5'_225 
REMARK   67  A    between atoms: C5'_224  and  C4'_226 
REMARK   68  A    between atoms: C3'_228  and  O3'_229 
REMARK   69  A    between atoms: O3'_229  and  P_243 
REMARK   70  A    between atoms: C1'_231  and  N1_232 
REMARK   71  A    between atoms: P_243  and  O5'_245 
REMARK   72  A    between atoms: C5'_244  and  C4'_246 
REMARK   73  A    between atoms: C5'_244  and  O5'_245 
REMARK   74  A    between atoms: C3'_248  and  O3'_249 
REMARK   75  A    between atoms: O3'_249  and  P_264 
REMARK   76  A    between atoms: C1'_251  and  N9_261 
REMARK   77  A    between atoms: P_264  and  O5'_266 
REMARK   78  A    between atoms: C5'_265  and  C4'_267 
REMARK   79  A    between atoms: C5'_265  and  O5'_266 
REMARK   80  A    between atoms: C3'_269  and  O3'_270 
REMARK   81  A    between atoms: O3'_270  and  P_285 
REMARK   82  A    between atoms: C1'_272  and  N9_282 
REMARK   83  A    between atoms: P_285  and  O5'_287 
REMARK   84  A    between atoms: C5'_286  and  O5'_287 
REMARK   85  A    between atoms: C5'_286  and  C4'_288 
REMARK   86  A    between atoms: C3'_290  and  O3'_291 
REMARK   87  A    between atoms: O3'_291  and  P_304 
REMARK   88  A    between atoms: C1'_293  and  N1_294 
REMARK   89  A    between atoms: P_304  and  O5'_306 
REMARK   90  A    between atoms: C5'_305  and  C4'_307 
REMARK   91  A    between atoms: C5'_305  and  O5'_306 
REMARK   92  A    between atoms: C1'_312  and  N9_323 
ROOT
HETATM    1  C5' BRU D   9      41.633  41.150  18.058  1.00 14.48     0.187 C 
ENDROOT
BRANCH   1   2
HETATM    2  O5' BRU D   9      40.822  40.012  18.280  1.00 12.82    -0.268 OA
BRANCH   2   3
HETATM    3  P   BRU D   9      41.415  38.559  18.086  1.00 11.11     0.410 P 
HETATM    4  OP1 BRU D   9      42.222  38.496  16.812  1.00 14.53    -0.624 OA
HETATM    5  OP2 BRU D   9      42.071  38.252  19.385  1.00 12.75    -0.624 OA
BRANCH   3   6
ATOM      6  O3'  DA D   8      40.134  37.686  17.761  1.00 11.43    -0.271 OA
BRANCH   6   7
ATOM      7  C3'  DA D   8      40.058  36.369  18.270  1.00 10.57     0.161 C 
ATOM      8  C4'  DA D   8      40.297  35.380  17.134  1.00 11.52     0.175 C 
ATOM      9  O4'  DA D   8      39.560  34.199  17.494  1.00 11.40    -0.333 OA
ATOM     10  C1'  DA D   8      38.524  34.531  18.433  1.00 11.23     0.210 C 
ATOM     11  C2'  DA D   8      38.648  36.025  18.725  1.00 12.23     0.087 C 
BRANCH   8  12
ATOM     12  C5'  DA D   8      41.735  35.001  16.883  1.00 13.06     0.187 C 
BRANCH  12  13
ATOM     13  O5'  DA D   8      42.358  34.622  18.085  1.00 11.03    -0.268 OA
BRANCH  13  14
ATOM     14  P    DA D   8      43.026  33.159  18.200  1.00 12.25     0.410 P 
ATOM     15  OP2  DA D   8      44.473  33.387  18.553  1.00 11.74    -0.624 OA
ATOM     16  OP1  DA D   8      42.694  32.364  17.008  1.00 15.55    -0.624 OA
BRANCH  14  17
ATOM     17  O3'  DC D   7      42.289  32.470  19.443  1.00 12.10    -0.271 OA
BRANCH  17  18
ATOM     18  C3'  DC D   7      42.069  31.045  19.425  1.00 11.74     0.161 C 
ATOM     19  C2'  DC D   7      41.178  30.581  18.275  1.00 11.76     0.087 C 
ATOM     20  C1'  DC D   7      41.649  29.142  18.038  1.00 12.42     0.211 C 
ATOM     21  O4'  DC D   7      42.984  29.079  18.529  1.00 12.34    -0.333 OA
ATOM     22  C4'  DC D   7      43.377  30.355  19.105  1.00 11.56     0.175 C 
BRANCH  20  23
ATOM     23  N1   DC D   7      40.839  28.237  18.887  1.00 11.09    -0.256 N 
ATOM     24  C2   DC D   7      39.751  27.603  18.282  1.00  9.80     0.353 A 
ATOM     25  O2   DC D   7      39.525  27.898  17.095  1.00 10.91    -0.244 OA
ATOM     26  N3   DC D   7      38.984  26.726  18.975  1.00  9.76    -0.171 NA
ATOM     27  C4   DC D   7      39.231  26.504  20.256  1.00 11.68     0.190 A 
ATOM     28  N4   DC D   7      38.435  25.624  20.927  1.00 10.83    -0.127 N 
ATOM     29  C5   DC D   7      40.331  27.163  20.935  1.00 10.32     0.060 A 
ATOM     30  C6   DC D   7      41.104  28.016  20.209  1.00 11.95     0.085 A 
ENDBRANCH  20  23
BRANCH  22  31
ATOM     31  C5'  DC D   7      44.280  30.115  20.283  1.00 14.18     0.187 C 
BRANCH  31  32
ATOM     32  O5'  DC D   7      43.626  29.205  21.177  1.00 16.43    -0.268 OA
BRANCH  32  33
ATOM     33  P    DC D   7      44.479  28.065  21.882  1.00 18.54     0.410 P 
ATOM     34  OP1  DC D   7      44.268  26.838  21.130  1.00 22.71    -0.624 OA
ATOM     35  OP2  DC D   7      45.813  28.618  22.099  1.00 19.79    -0.624 OA
BRANCH  33  36
ATOM     36  O3'  DC D   6      43.653  27.823  23.247  1.00 17.13    -0.271 OA
BRANCH  36  37
ATOM     37  C3'  DC D   6      42.905  28.867  23.827  1.00 14.94     0.161 C 
ATOM     38  C4'  DC D   6      43.612  29.265  25.118  1.00 15.77     0.175 C 
ATOM     39  O4'  DC D   6      42.945  28.518  26.151  1.00 13.81    -0.333 OA
ATOM     40  C1'  DC D   6      42.051  27.617  25.559  1.00 12.86     0.211 C 
ATOM     41  C2'  DC D   6      41.579  28.308  24.306  1.00 14.65     0.087 C 
BRANCH  38  42
ATOM     42  C5'  DC D   6      43.530  30.743  25.408  1.00 18.13     0.187 C 
BRANCH  42  43
ATOM     43  O5'  DC D   6      43.254  31.449  24.202  1.00 19.27    -0.268 OA
BRANCH  43  44
ATOM     44  P    DC D   6      44.321  32.490  23.611  1.00 19.84     0.410 P 
ATOM     45  OP1  DC D   6      45.523  31.671  23.308  1.00 24.35    -0.624 OA
ATOM     46  OP2  DC D   6      43.671  33.251  22.545  1.00 20.92    -0.624 OA
BRANCH  44  47
ATOM     47  O3'  DA D   5      44.655  33.376  24.891  1.00 19.93    -0.271 OA
BRANCH  47  48
ATOM     48  C3'  DA D   5      46.009  33.609  25.273  1.00 16.89     0.161 C 
ATOM     49  C4'  DA D   5      45.964  34.006  26.745  1.00 17.32     0.175 C 
ATOM     50  O4'  DA D   5      45.893  35.436  26.754  1.00 18.24    -0.333 OA
ATOM     51  C1'  DA D   5      46.027  35.947  25.415  1.00 15.77     0.210 C 
ATOM     52  C2'  DA D   5      46.616  34.828  24.581  1.00 16.34     0.087 C 
BRANCH  49  53
ATOM     53  C5'  DA D   5      47.096  33.471  27.594  1.00 17.61     0.187 C 
BRANCH  53  54
ATOM     54  O5'  DA D   5      47.434  34.426  28.597  1.00 19.33    -0.268 OA
BRANCH  54  55
ATOM     55  P    DA D   5      47.158  34.102  30.118  1.00 20.74     0.410 P 
ATOM     56  OP2  DA D   5      46.442  35.217  30.782  1.00 23.47    -0.624 OA
ATOM     57  OP1  DA D   5      48.446  33.586  30.685  1.00 23.99    -0.624 OA
BRANCH  55  58
ATOM     58  O3'  DT D   4      46.223  32.788  30.030  1.00 19.59    -0.271 OA
BRANCH  58  59
ATOM     59  C3'  DT D   4      45.113  32.594  30.933  1.00 18.10     0.161 C 
ATOM     60  C4'  DT D   4      45.623  31.815  32.157  1.00 15.82     0.175 C 
ATOM     61  O4'  DT D   4      45.176  30.457  31.991  1.00 16.38    -0.333 OA
ATOM     62  C1'  DT D   4      44.561  30.266  30.720  1.00 15.63     0.211 C 
ATOM     63  C2'  DT D   4      44.055  31.666  30.333  1.00 16.56     0.087 C 
BRANCH  60  64
ATOM     64  C5'  DT D   4      45.136  32.290  33.510  1.00 17.08     0.187 C 
BRANCH  64  65
ATOM     65  O5'  DT D   4      44.378  33.508  33.363  1.00 15.07    -0.268 OA
BRANCH  65  66
ATOM     66  P    DT D   4      43.473  34.031  34.569  1.00 15.11     0.410 P 
ATOM     67  OP1  DT D   4      43.391  32.942  35.623  1.00 18.00    -0.624 OA
ATOM     68  OP2  DT D   4      44.027  35.369  34.931  1.00 17.03    -0.624 OA
BRANCH  66  69
HETATM   69  O3' BRU D   3      42.048  34.089  33.927  1.00 15.24    -0.271 OA
BRANCH  69  70
HETATM   70  C3' BRU D   3      41.721  33.338  32.753  1.00 13.22     0.161 C 
HETATM   71  C4' BRU D   3      41.010  34.349  31.854  1.00 14.89     0.175 C 
HETATM   72  O4' BRU D   3      39.796  33.718  31.404  1.00 16.05    -0.333 OA
HETATM   73  C1' BRU D   3      39.382  32.837  32.443  1.00 15.34     0.211 C 
HETATM   74  C2' BRU D   3      40.698  32.205  32.920  1.00 12.90     0.087 C 
BRANCH  71  75
HETATM   75  C5' BRU D   3      41.771  34.965  30.708  1.00 17.61     0.187 C 
BRANCH  75  76
HETATM   76  O5' BRU D   3      42.387  36.178  31.092  1.00 15.66    -0.268 OA
BRANCH  76  77
HETATM   77  P   BRU D   3      43.161  37.002  29.962  1.00 16.77     0.410 P 
HETATM   78  OP1 BRU D   3      44.285  37.701  30.649  1.00 18.57    -0.624 OA
HETATM   79  OP2 BRU D   3      43.418  36.109  28.798  1.00 18.18    -0.624 OA
BRANCH  77  80
ATOM     80  O3'  DG D   2      42.128  38.123  29.504  1.00 17.32    -0.271 OA
BRANCH  80  81
ATOM     81  C3'  DG D   2      41.477  38.051  28.246  1.00 15.47     0.161 C 
ATOM     82  C2'  DG D   2      40.007  37.656  28.443  1.00 16.87     0.087 C 
ATOM     83  C1'  DG D   2      39.386  38.965  28.927  1.00 16.11     0.210 C 
ATOM     84  O4'  DG D   2      40.137  40.004  28.287  1.00 18.37    -0.333 OA
ATOM     85  C4'  DG D   2      41.392  39.504  27.777  1.00 18.34     0.175 C 
BRANCH  83  86
ATOM     86  N9   DG D   2      37.987  39.173  28.556  1.00 16.03    -0.272 N 
ATOM     87  C8   DG D   2      37.274  38.535  27.569  1.00 14.57     0.182 A 
ATOM     88  N7   DG D   2      36.062  39.012  27.409  1.00 16.34    -0.217 NA
ATOM     89  C5   DG D   2      35.974  40.036  28.368  1.00 13.99     0.175 A 
ATOM     90  C6   DG D   2      34.904  40.935  28.659  1.00 12.33     0.302 A 
ATOM     91  C4   DG D   2      37.142  40.118  29.107  1.00 12.94     0.172 A 
ATOM     92  O6   DG D   2      33.825  41.001  28.099  1.00 15.71    -0.263 OA
ATOM     93  N1   DG D   2      35.215  41.799  29.686  1.00 12.85    -0.174 NA
ATOM     94  C2   DG D   2      36.406  41.809  30.385  1.00 12.30     0.242 A 
ATOM     95  N2   DG D   2      36.531  42.732  31.412  1.00 15.13    -0.059 NA
ATOM     96  N3   DG D   2      37.433  40.960  30.124  1.00 14.89    -0.195 NA
ENDBRANCH  83  86
BRANCH  85  97
ATOM     97  C5'  DG D   2      41.478  39.720  26.286  1.00 20.11     0.187 C 
BRANCH  97  98
ATOM     98  O5'  DG D   2      41.620  41.104  25.985  1.00 21.44    -0.268 OA
BRANCH  98  99
ATOM     99  P    DG D   2      43.032  41.815  26.088  1.00 23.19     0.410 P 
ATOM    100  OP1  DG D   2      42.798  42.976  26.993  1.00 25.33    -0.624 OA
ATOM    101  OP2  DG D   2      44.135  40.880  26.358  1.00 23.21    -0.624 OA
BRANCH  99 102
ATOM    102  O3'  DC D   1      43.308  42.407  24.626  1.00 26.59    -0.271 OA
BRANCH 102 103
ATOM    103  C3'  DC D   1      44.257  43.456  24.487  1.00 27.88     0.161 C 
ATOM    104  C2'  DC D   1      45.170  43.103  23.330  1.00 26.06     0.087 C 
ATOM    105  C1'  DC D   1      44.263  43.426  22.165  1.00 24.51     0.211 C 
ATOM    106  O4'  DC D   1      43.547  44.609  22.555  1.00 29.50    -0.333 OA
ATOM    107  C4'  DC D   1      43.510  44.686  23.990  1.00 29.48     0.178 C 
BRANCH 105 108
ATOM    108  N1   DC D   1      44.886  43.716  20.868  1.00 21.38    -0.256 N 
ATOM    109  C6   DC D   1      45.079  45.000  20.435  1.00 19.62     0.085 A 
ATOM    110  C5   DC D   1      45.568  45.246  19.203  1.00 19.43     0.060 A 
ATOM    111  C4   DC D   1      45.914  44.115  18.400  1.00 17.00     0.190 A 
ATOM    112  N4   DC D   1      46.423  44.280  17.178  1.00 18.52    -0.127 N 
ATOM    113  N3   DC D   1      45.752  42.857  18.839  1.00 17.32    -0.171 NA
ATOM    114  C2   DC D   1      45.235  42.641  20.058  1.00 18.49     0.353 A 
ATOM    115  O2   DC D   1      45.056  41.493  20.479  1.00 18.51    -0.244 OA
ENDBRANCH 105 108
BRANCH 107 116
ATOM    116  C5'  DC D   1      44.054  46.016  24.461  1.00 31.78     0.214 C 
ATOM    117  O5'  DC D   1      44.697  45.871  25.731  1.00 34.90    -0.218 OA
ENDBRANCH 107 116
ENDBRANCH 102 103
ENDBRANCH  99 102
ENDBRANCH  98  99
ENDBRANCH  97  98
ENDBRANCH  85  97
ENDBRANCH  80  81
ENDBRANCH  77  80
ENDBRANCH  76  77
ENDBRANCH  75  76
ENDBRANCH  71  75
BRANCH  73 118
HETATM  118  N1  BRU D   3      38.437  31.878  31.864  1.00 13.25    -0.255 N 
HETATM  119  C2  BRU D   3      38.855  30.994  30.844  1.00 11.90     0.354 A 
HETATM  120  O2  BRU D   3      39.980  31.004  30.382  1.00 16.11    -0.244 OA
HETATM  121  N3  BRU D   3      37.915  30.119  30.398  1.00 12.15    -0.153 NA
HETATM  122  C4  BRU D   3      36.660  30.006  30.852  1.00 12.48     0.291 A 
HETATM  123  O4  BRU D   3      35.838  29.204  30.367  1.00 16.38    -0.264 OA
HETATM  124  C5  BRU D   3      36.354  30.964  31.858  1.00 14.67     0.110 A 
HETATM  125  C6  BRU D   3      37.216  31.831  32.303  1.00 13.17     0.094 A 
HETATM  126 BR   BRU D   3      34.389  30.989  32.613  1.00 24.07    -0.043 Br
ENDBRANCH  73 118
ENDBRANCH  69  70
ENDBRANCH  66  69
ENDBRANCH  65  66
ENDBRANCH  64  65
ENDBRANCH  60  64
BRANCH  62 127
ATOM    127  N1   DT D   4      43.554  29.181  30.903  1.00 13.98    -0.256 N 
ATOM    128  C2   DT D   4      43.628  28.080  30.096  1.00 13.56     0.354 A 
ATOM    129  O2   DT D   4      44.467  28.002  29.200  1.00 16.57    -0.244 OA
ATOM    130  N3   DT D   4      42.722  27.063  30.365  1.00 12.35    -0.153 NA
ATOM    131  C4   DT D   4      41.765  27.071  31.376  1.00 11.46     0.280 A 
ATOM    132  O4   DT D   4      41.033  26.089  31.579  1.00 13.76    -0.265 OA
ATOM    133  C5   DT D   4      41.711  28.302  32.141  1.00 12.51     0.053 A 
ATOM    134  C7   DT D   4      40.667  28.445  33.198  1.00 14.43     0.038 C 
ATOM    135  C6   DT D   4      42.591  29.273  31.888  1.00 14.14     0.083 A 
ENDBRANCH  62 127
ENDBRANCH  58  59
ENDBRANCH  55  58
ENDBRANCH  54  55
ENDBRANCH  53  54
ENDBRANCH  49  53
BRANCH  51 136
ATOM    136  N9   DA D   5      46.882  37.134  25.551  1.00 14.16    -0.272 N 
ATOM    137  C4   DA D   5      48.040  37.371  24.843  1.00 14.21     0.170 A 
ATOM    138  C5   DA D   5      48.385  38.683  25.132  1.00 12.40     0.155 A 
ATOM    139  N3   DA D   5      48.698  36.537  24.028  1.00 13.46    -0.205 NA
ATOM    140  C6   DA D   5      49.534  39.197  24.533  1.00 12.04     0.206 A 
ATOM    141  N7   DA D   5      47.489  39.229  26.014  1.00 14.47    -0.219 NA
ATOM    142  N6   DA D   5      49.959  40.457  24.752  1.00 12.46    -0.125 N 
ATOM    143  N1   DA D   5      50.234  38.387  23.704  1.00 13.98    -0.202 NA
ATOM    144  C2   DA D   5      49.770  37.138  23.503  1.00 14.25     0.202 A 
ATOM    145  C8   DA D   5      46.637  38.260  26.264  1.00 14.09     0.182 A 
ENDBRANCH  51 136
ENDBRANCH  47  48
ENDBRANCH  44  47
ENDBRANCH  43  44
ENDBRANCH  42  43
ENDBRANCH  38  42
BRANCH  40 146
ATOM    146  N1   DC D   6      41.015  27.243  26.565  1.00 11.89    -0.256 N 
ATOM    147  C2   DC D   6      40.029  28.199  26.864  1.00 11.45     0.353 A 
ATOM    148  O2   DC D   6      40.001  29.213  26.200  1.00 12.57    -0.244 OA
ATOM    149  N3   DC D   6      39.144  27.964  27.869  1.00 11.17    -0.171 NA
ATOM    150  C4   DC D   6      39.186  26.812  28.530  1.00 11.08     0.190 A 
ATOM    151  N4   DC D   6      38.319  26.598  29.534  1.00 10.70    -0.127 N 
ATOM    152  C5   DC D   6      40.152  25.790  28.198  1.00 10.83     0.060 A 
ATOM    153  C6   DC D   6      41.034  26.056  27.219  1.00 11.79     0.085 A 
ENDBRANCH  40 146
ENDBRANCH  36  37
ENDBRANCH  33  36
ENDBRANCH  32  33
ENDBRANCH  31  32
ENDBRANCH  22  31
ENDBRANCH  17  18
ENDBRANCH  14  17
ENDBRANCH  13  14
ENDBRANCH  12  13
ENDBRANCH   8  12
BRANCH  10 154
ATOM    154  N9   DA D   8      38.794  33.770  19.653  1.00 10.83    -0.272 N 
ATOM    155  C4   DA D   8      38.439  32.456  19.827  1.00  9.99     0.170 A 
ATOM    156  N3   DA D   8      37.785  31.657  18.941  1.00 10.21    -0.205 NA
ATOM    157  C5   DA D   8      38.923  32.101  21.067  1.00 10.31     0.155 A 
ATOM    158  C2   DA D   8      37.647  30.444  19.417  1.00 10.39     0.202 A 
ATOM    159  N1   DA D   8      38.054  29.956  20.610  1.00 11.14    -0.202 NA
ATOM    160  C6   DA D   8      38.741  30.764  21.450  1.00 10.09     0.206 A 
ATOM    161  N6   DA D   8      39.229  30.228  22.559  1.00 11.37    -0.125 N 
ATOM    162  N7   DA D   8      39.537  33.203  21.688  1.00 10.47    -0.219 NA
ATOM    163  C8   DA D   8      39.413  34.167  20.802  1.00 11.39     0.182 A 
ENDBRANCH  10 154
ENDBRANCH   6   7
ENDBRANCH   3   6
ENDBRANCH   2   3
ENDBRANCH   1   2
BRANCH   1 164
HETATM  164  C4' BRU D   9      41.764  41.958  19.329  1.00 14.07     0.175 C 
HETATM  165  O4' BRU D   9      41.717  43.377  18.997  1.00 13.32    -0.333 OA
HETATM  166  C1' BRU D   9      41.204  44.104  20.111  1.00 13.84     0.211 C 
HETATM  167  C2' BRU D   9      40.650  43.102  21.101  1.00 12.11     0.087 C 
HETATM  168  C3' BRU D   9      40.656  41.781  20.347  1.00 15.00     0.161 C 
BRANCH 166 169
HETATM  169  N1  BRU D   9      40.081  44.920  19.639  1.00 13.67    -0.255 N 
HETATM  170  C2  BRU D   9      39.791  46.057  20.304  1.00 11.22     0.354 A 
HETATM  171  O2  BRU D   9      40.411  46.380  21.292  1.00 13.50    -0.244 OA
HETATM  172  N3  BRU D   9      38.758  46.818  19.775  1.00 11.85    -0.153 NA
HETATM  173  C4  BRU D   9      38.051  46.501  18.684  1.00 10.30     0.291 A 
HETATM  174  O4  BRU D   9      37.197  47.297  18.211  1.00 12.93    -0.264 OA
HETATM  175  C5  BRU D   9      38.434  45.240  18.107  1.00 12.08     0.110 A 
HETATM  176  C6  BRU D   9      39.394  44.522  18.582  1.00 13.06     0.094 A 
HETATM  177 BR   BRU D   9      37.296  44.807  16.429  1.00 15.13    -0.043 Br
ENDBRANCH 166 169
BRANCH 168 178
HETATM  178  O3' BRU D   9      40.943  40.709  21.236  1.00 13.15    -0.271 OA
BRANCH 178 179
ATOM    179  P    DG D  10      39.725  39.968  21.918  1.00 14.52     0.410 P 
ATOM    180  OP2  DG D  10      38.874  40.887  22.744  1.00 14.92    -0.624 OA
ATOM    181  OP1  DG D  10      39.078  39.138  20.843  1.00 16.08    -0.624 OA
BRANCH 179 182
ATOM    182  O5'  DG D  10      40.409  38.978  22.994  1.00 14.63    -0.268 OA
BRANCH 182 183
ATOM    183  C5'  DG D  10      39.701  37.884  23.552  1.00 14.28     0.187 C 
BRANCH 183 184
ATOM    184  C4'  DG D  10      40.523  36.627  23.415  1.00 14.53     0.175 C 
ATOM    185  C3'  DG D  10      41.033  36.027  24.716  1.00 16.36     0.161 C 
ATOM    186  C2'  DG D  10      42.438  36.614  24.832  1.00 15.07     0.087 C 
ATOM    187  C1'  DG D  10      42.855  36.588  23.378  1.00 13.41     0.210 C 
ATOM    188  O4'  DG D  10      41.701  36.925  22.624  1.00 13.85    -0.333 OA
BRANCH 185 189
ATOM    189  O3'  DG D  10      41.045  34.619  24.471  1.00 20.48    -0.271 OA
BRANCH 189 190
ATOM    190  P    DG D  11      40.749  33.579  25.662  1.00 20.71     0.410 P 
ATOM    191  OP2  DG D  11      40.325  32.236  25.208  1.00 22.10    -0.624 OA
ATOM    192  OP1  DG D  11      41.871  33.733  26.626  1.00 24.32    -0.624 OA
BRANCH 190 193
ATOM    193  O5'  DG D  11      39.478  34.205  26.367  1.00 19.33    -0.268 OA
BRANCH 193 194
ATOM    194  C5'  DG D  11      39.316  34.058  27.773  1.00 18.66     0.187 C 
BRANCH 194 195
ATOM    195  C4'  DG D  11      37.963  33.453  28.050  1.00 18.71     0.175 C 
ATOM    196  C3'  DG D  11      36.936  33.785  26.987  1.00 19.69     0.161 C 
ATOM    197  C2'  DG D  11      36.279  35.041  27.533  1.00 18.26     0.087 C 
ATOM    198  C1'  DG D  11      36.244  34.720  29.022  1.00 15.98     0.210 C 
ATOM    199  O4'  DG D  11      37.372  33.904  29.292  1.00 17.85    -0.333 OA
BRANCH 196 200
ATOM    200  O3'  DG D  11      36.020  32.702  27.027  1.00 24.65    -0.271 OA
BRANCH 200 201
ATOM    201  P    DT D  12      36.291  31.432  26.156  1.00 28.19     0.410 P 
ATOM    202  OP2  DT D  12      37.280  31.636  25.074  1.00 27.85    -0.624 OA
ATOM    203  OP1  DT D  12      36.472  30.361  27.178  1.00 29.91    -0.624 OA
BRANCH 201 204
ATOM    204  O5'  DT D  12      34.933  31.207  25.374  1.00 28.66    -0.268 OA
BRANCH 204 205
ATOM    205  C5'  DT D  12      33.871  32.048  25.691  1.00 29.00     0.187 C 
BRANCH 205 206
ATOM    206  C4'  DT D  12      33.064  32.361  24.473  1.00 28.07     0.175 C 
ATOM    207  C3'  DT D  12      33.517  33.536  23.630  1.00 29.44     0.161 C 
ATOM    208  C2'  DT D  12      32.336  34.496  23.687  1.00 29.37     0.087 C 
ATOM    209  C1'  DT D  12      31.150  33.561  23.966  1.00 27.26     0.211 C 
ATOM    210  O4'  DT D  12      31.674  32.552  24.778  1.00 26.37    -0.333 OA
BRANCH 207 211
ATOM    211  O3'  DT D  12      33.661  32.910  22.382  1.00 31.26    -0.271 OA
BRANCH 211 212
ATOM    212  P    DA D  13      35.090  32.457  21.855  1.00 34.05     0.410 P 
ATOM    213  OP2  DA D  13      36.146  33.180  22.626  1.00 31.89    -0.624 OA
ATOM    214  OP1  DA D  13      35.005  30.991  21.901  1.00 33.32    -0.624 OA
BRANCH 212 215
ATOM    215  O5'  DA D  13      34.998  32.911  20.342  1.00 31.02    -0.268 OA
BRANCH 215 216
ATOM    216  C5'  DA D  13      34.894  34.297  20.016  1.00 27.53     0.187 C 
BRANCH 216 217
ATOM    217  C4'  DA D  13      34.666  34.457  18.534  1.00 25.33     0.175 C 
ATOM    218  O4'  DA D  13      35.199  33.328  17.798  1.00 22.92    -0.333 OA
ATOM    219  C1'  DA D  13      34.174  32.689  17.033  1.00 20.98     0.210 C 
ATOM    220  C2'  DA D  13      32.844  33.164  17.638  1.00 23.30     0.087 C 
ATOM    221  C3'  DA D  13      33.189  34.561  18.134  1.00 26.45     0.161 C 
BRANCH 219 222
ATOM    222  N9   DA D  13      34.411  31.256  17.141  1.00 17.31    -0.272 N 
ATOM    223  C8   DA D  13      33.901  30.416  18.068  1.00 17.58     0.182 A 
ATOM    224  N7   DA D  13      34.375  29.200  18.010  1.00 17.72    -0.219 NA
ATOM    225  C5   DA D  13      35.228  29.225  16.937  1.00 14.33     0.155 A 
ATOM    226  C6   DA D  13      36.037  28.251  16.332  1.00 14.45     0.206 A 
ATOM    227  C4   DA D  13      35.257  30.496  16.372  1.00 15.76     0.170 A 
ATOM    228  N6   DA D  13      36.165  26.967  16.773  1.00 15.52    -0.125 N 
ATOM    229  N1   DA D  13      36.731  28.627  15.257  1.00 14.59    -0.202 NA
ATOM    230  C2   DA D  13      36.670  29.895  14.832  1.00 15.74     0.202 A 
ATOM    231  N3   DA D  13      35.979  30.908  15.332  1.00 15.60    -0.205 NA
ENDBRANCH 219 222
BRANCH 221 232
ATOM    232  O3'  DA D  13      33.075  35.486  17.071  1.00 30.43    -0.271 OA
BRANCH 232 233
ATOM    233  P    DA D  14      32.070  36.714  17.218  1.00 32.07     0.410 P 
ATOM    234  OP2  DA D  14      32.399  37.708  16.207  1.00 33.16    -0.624 OA
ATOM    235  OP1  DA D  14      30.711  36.112  17.274  1.00 33.96    -0.624 OA
BRANCH 233 236
ATOM    236  O5'  DA D  14      32.405  37.252  18.654  1.00 31.87    -0.268 OA
BRANCH 236 237
ATOM    237  C5'  DA D  14      33.229  38.399  18.777  1.00 30.81     0.187 C 
BRANCH 237 238
ATOM    238  C4'  DA D  14      34.644  37.966  19.050  1.00 31.39     0.175 C 
ATOM    239  O4'  DA D  14      35.462  38.174  17.870  1.00 30.66    -0.333 OA
ATOM    240  C1'  DA D  14      36.597  38.930  18.247  1.00 28.20     0.210 C 
ATOM    241  C2'  DA D  14      36.139  39.791  19.407  1.00 29.16     0.087 C 
ATOM    242  C3'  DA D  14      35.309  38.770  20.162  1.00 31.09     0.161 C 
BRANCH 240 243
ATOM    243  N9   DA D  14      37.084  39.636  17.080  1.00 24.41    -0.272 N 
ATOM    244  C4   DA D  14      37.477  38.981  15.946  1.00 21.62     0.170 A 
ATOM    245  N3   DA D  14      37.414  37.648  15.724  1.00 18.94    -0.205 NA
ATOM    246  C5   DA D  14      37.978  39.948  15.117  1.00 22.12     0.155 A 
ATOM    247  C2   DA D  14      37.968  37.353  14.530  1.00 18.83     0.202 A 
ATOM    248  N1   DA D  14      38.473  38.187  13.645  1.00 18.79    -0.202 NA
ATOM    249  C6   DA D  14      38.478  39.525  13.909  1.00 19.52     0.206 A 
ATOM    250  N6   DA D  14      38.943  40.368  13.010  1.00 21.07    -0.125 N 
ATOM    251  N7   DA D  14      37.877  41.212  15.700  1.00 24.53    -0.219 NA
ATOM    252  C8   DA D  14      37.311  40.967  16.858  1.00 24.70     0.182 A 
ENDBRANCH 240 243
BRANCH 242 253
ATOM    253  O3'  DA D  14      36.148  37.862  20.840  1.00 31.14    -0.271 OA
BRANCH 253 254
ATOM    254  P    DC D  15      35.784  37.375  22.327  1.00 30.59     0.410 P 
ATOM    255  OP1  DC D  15      36.723  36.256  22.628  1.00 31.75    -0.624 OA
ATOM    256  OP2  DC D  15      34.313  37.203  22.531  1.00 29.87    -0.624 OA
BRANCH 254 257
ATOM    257  O5'  DC D  15      36.303  38.652  23.142  1.00 30.76    -0.268 OA
BRANCH 257 258
ATOM    258  C5'  DC D  15      35.372  39.422  23.951  1.00 28.28     0.187 C 
BRANCH 258 259
ATOM    259  C4'  DC D  15      35.552  40.912  23.731  1.00 28.15     0.175 C 
ATOM    260  O4'  DC D  15      34.577  41.434  22.799  1.00 23.18    -0.333 OA
ATOM    261  C1'  DC D  15      33.829  42.498  23.389  1.00 22.58     0.211 C 
ATOM    262  C2'  DC D  15      34.074  42.407  24.886  1.00 24.52     0.087 C 
ATOM    263  C3'  DC D  15      35.456  41.789  24.971  1.00 28.37     0.161 C 
BRANCH 261 264
ATOM    264  N1   DC D  15      32.420  42.278  23.052  1.00 18.64    -0.256 N 
ATOM    265  C6   DC D  15      31.772  41.147  23.470  1.00 16.47     0.085 A 
ATOM    266  C5   DC D  15      30.519  40.892  23.106  1.00 15.01     0.060 A 
ATOM    267  C4   DC D  15      29.881  41.854  22.236  1.00 13.33     0.190 A 
ATOM    268  N3   DC D  15      30.482  42.992  21.898  1.00 13.89    -0.171 NA
ATOM    269  N4   DC D  15      28.683  41.600  21.744  1.00 15.28    -0.127 N 
ATOM    270  C2   DC D  15      31.741  43.236  22.269  1.00 18.12     0.353 A 
ATOM    271  O2   DC D  15      32.355  44.274  21.933  1.00 20.47    -0.244 OA
ENDBRANCH 261 264
BRANCH 263 272
ATOM    272  O3'  DC D  15      36.427  42.823  24.909  1.00 31.34    -0.271 OA
BRANCH 272 273
ATOM    273  P    DG D  16      37.597  42.844  25.979  1.00 32.78     0.410 P 
ATOM    274  OP1  DG D  16      38.216  41.487  25.983  1.00 34.59    -0.624 OA
ATOM    275  OP2  DG D  16      37.030  43.405  27.231  1.00 31.45    -0.624 OA
BRANCH 273 276
ATOM    276  O5'  DG D  16      38.611  43.903  25.377  1.00 31.83    -0.268 OA
BRANCH 276 277
ATOM    277  C5'  DG D  16      38.770  45.179  25.977  1.00 31.48     0.187 C 
BRANCH 277 278
ATOM    278  C4'  DG D  16      38.302  46.244  25.019  1.00 29.56     0.178 C 
ATOM    279  C3'  DG D  16      36.900  46.797  25.310  1.00 29.50     0.186 C 
ATOM    280  C2'  DG D  16      36.037  46.090  24.273  1.00 28.21     0.090 C 
ATOM    281  O3'  DG D  16      36.887  48.209  25.002  1.00 31.52    -0.221 OA
ATOM    282  C1'  DG D  16      36.995  46.062  23.112  1.00 24.75     0.210 C 
ATOM    283  O4'  DG D  16      38.234  45.705  23.682  1.00 27.49    -0.333 OA
BRANCH 282 284
ATOM    284  N9   DG D  16      36.695  45.099  22.068  1.00 21.33    -0.271 N 
ATOM    285  C4   DG D  16      35.782  45.269  21.068  1.00 19.88     0.188 A 
ATOM    286  N3   DG D  16      35.029  46.385  20.859  1.00 18.33    -0.038 NA
ATOM    287  C5   DG D  16      35.798  44.092  20.356  1.00 17.85     0.176 A 
ATOM    288  C2   DG D  16      34.234  46.258  19.836  1.00 15.82     0.773 A 
ATOM    289  N1   DG D  16      34.156  45.100  19.072  1.00 16.33    -0.016 NA
ATOM    290  N2   DG D  16      33.430  47.302  19.456  1.00 16.23     0.062 N 
ATOM    291  C6   DG D  16      34.920  43.953  19.264  1.00 15.94     0.316 A 
ATOM    292  O6   DG D  16      34.750  42.968  18.492  1.00 18.70    -0.263 OA
ATOM    293  N7   DG D  16      36.748  43.221  20.876  1.00 18.48    -0.217 NA
ATOM    294  C8   DG D  16      37.246  43.858  21.898  1.00 19.50     0.182 A 
ENDBRANCH 282 284
ENDBRANCH 277 278
ENDBRANCH 276 277
ENDBRANCH 273 276
ENDBRANCH 272 273
ENDBRANCH 263 272
ENDBRANCH 258 259
ENDBRANCH 257 258
ENDBRANCH 254 257
ENDBRANCH 253 254
ENDBRANCH 242 253
ENDBRANCH 237 238
ENDBRANCH 236 237
ENDBRANCH 233 236
ENDBRANCH 232 233
ENDBRANCH 221 232
ENDBRANCH 216 217
ENDBRANCH 215 216
ENDBRANCH 212 215
ENDBRANCH 211 212
ENDBRANCH 207 211
BRANCH 209 295
ATOM    295  N1   DT D  12      30.021  34.123  24.715  1.00 25.54    -0.256 N 
ATOM    296  C6   DT D  12      30.207  35.122  25.648  1.00 22.97     0.083 A 
ATOM    297  C5   DT D  12      29.216  35.620  26.414  1.00 22.23     0.053 A 
ATOM    298  C4   DT D  12      27.897  35.081  26.239  1.00 20.03     0.280 A 
ATOM    299  C7   DT D  12      29.400  36.706  27.424  1.00 23.27     0.038 C 
ATOM    300  O4   DT D  12      26.933  35.446  26.907  1.00 18.53    -0.265 OA
ATOM    301  N3   DT D  12      27.766  34.100  25.255  1.00 19.51    -0.153 NA
ATOM    302  C2   DT D  12      28.765  33.583  24.476  1.00 22.25     0.354 A 
ATOM    303  O2   DT D  12      28.572  32.710  23.637  1.00 24.24    -0.244 OA
ENDBRANCH 209 295
ENDBRANCH 205 206
ENDBRANCH 204 205
ENDBRANCH 201 204
ENDBRANCH 200 201
ENDBRANCH 196 200
BRANCH 198 304
ATOM    304  N9   DG D  11      36.342  35.868  29.918  1.00 15.12    -0.271 N 
ATOM    305  C8   DG D  11      37.404  36.212  30.721  1.00 13.13     0.182 A 
ATOM    306  N7   DG D  11      37.150  37.235  31.494  1.00 13.46    -0.217 NA
ATOM    307  C5   DG D  11      35.841  37.586  31.184  1.00 11.37     0.176 A 
ATOM    308  C6   DG D  11      35.032  38.595  31.732  1.00 10.16     0.316 A 
ATOM    309  C4   DG D  11      35.333  36.778  30.194  1.00 12.33     0.188 A 
ATOM    310  O6   DG D  11      35.298  39.340  32.651  1.00 10.86    -0.263 OA
ATOM    311  N1   DG D  11      33.784  38.652  31.094  1.00 10.07    -0.016 NA
ATOM    312  C2   DG D  11      33.368  37.797  30.076  1.00 11.41     0.773 A 
ATOM    313  N2   DG D  11      32.133  38.009  29.530  1.00 10.83     0.062 N 
ATOM    314  N3   DG D  11      34.114  36.812  29.609  1.00 11.83    -0.038 NA
ENDBRANCH 198 304
ENDBRANCH 194 195
ENDBRANCH 193 194
ENDBRANCH 190 193
ENDBRANCH 189 190
ENDBRANCH 185 189
BRANCH 187 315
ATOM    315  N9   DG D  10      43.896  37.562  23.083  1.00 11.23    -0.271 N 
ATOM    316  C8   DG D  10      44.025  38.844  23.586  1.00 12.20     0.182 A 
ATOM    317  N7   DG D  10      45.127  39.438  23.178  1.00 12.66    -0.217 NA
ATOM    318  C5   DG D  10      45.727  38.505  22.340  1.00 10.47     0.176 A 
ATOM    319  C4   DG D  10      44.979  37.352  22.267  1.00 10.52     0.188 A 
ATOM    320  C6   DG D  10      46.950  38.574  21.569  1.00 11.39     0.316 A 
ATOM    321  N3   DG D  10      45.229  36.237  21.554  1.00 10.98    -0.038 NA
ATOM    322  C2   DG D  10      46.382  36.308  20.897  1.00  8.78     0.773 A 
ATOM    323  N1   DG D  10      47.198  37.407  20.886  1.00  9.45    -0.016 NA
ATOM    324  N2   DG D  10      46.824  35.264  20.204  1.00 10.60     0.062 N 
ATOM    325  O6   DG D  10      47.751  39.530  21.444  1.00 10.46    -0.263 OA
ENDBRANCH 187 315
ENDBRANCH 183 184
ENDBRANCH 182 183
ENDBRANCH 179 182
ENDBRANCH 178 179
ENDBRANCH 168 178
ENDBRANCH   1 164
TORSDOF 92
ENDMDL
MODEL 6
REMARK VINA RESULT:      -0.2      3.378      7.062
REMARK WARNING: 32 MAX_TORS EXCEEDED!!!
REMARK  92 active torsions:
REMARK  status: ('A' for Active; 'I' for Inactive)
REMARK    1  A    between atoms: C5'_1  and  C4'_3 
REMARK    2  A    between atoms: C3'_5  and  O3'_6 
REMARK    3  A    between atoms: O3'_6  and  P_17 
REMARK    4  A    between atoms: C1'_8  and  N1_9 
REMARK    5  A    between atoms: P_17  and  O5'_19 
REMARK    6  A    between atoms: C5'_18  and  O5'_19 
REMARK    7  A    between atoms: C5'_18  and  C4'_20 
REMARK    8  A    between atoms: C3'_22  and  O3'_23 
REMARK    9  A    between atoms: O3'_23  and  P_39 
REMARK   10  A    between atoms: C1'_25  and  N9_36 
REMARK   11  A    between atoms: P_39  and  O5'_41 
REMARK   12  A    between atoms: C5'_40  and  O5'_41 
REMARK   13  A    between atoms: C5'_40  and  C4'_42 
REMARK   14  A    between atoms: C3'_44  and  O3'_45 
REMARK   15  A    between atoms: O3'_45  and  P_59 
REMARK   16  A    between atoms: C1'_47  and  N1_48 
REMARK   17  A    between atoms: P_59  and  O5'_61 
REMARK   18  A    between atoms: C5'_60  and  C4'_62 
REMARK   19  A    between atoms: C5'_60  and  O5'_61 
REMARK   20  A    between atoms: C3'_64  and  O3'_65 
REMARK   21  A    between atoms: O3'_65  and  P_79 
REMARK   22  A    between atoms: C1'_67  and  N1_68 
REMARK   23  A    between atoms: P_79  and  O5'_81 
REMARK   24  A    between atoms: C5'_80  and  C4'_82 
REMARK   25  A    between atoms: C5'_80  and  O5'_81 
REMARK   26  A    between atoms: C3'_84  and  O3'_85 
REMARK   27  A    between atoms: O3'_85  and  P_100 
REMARK   28  A    between atoms: C1'_87  and  N9_97 
REMARK   29  A    between atoms: P_100  and  O5'_102 
REMARK   30  A    between atoms: C5'_101  and  C4'_103 
REMARK   31  A    between atoms: C5'_101  and  O5'_102 
REMARK   32  A    between atoms: C3'_105  and  O3'_106 
REMARK   33  A    between atoms: O3'_106  and  P_119 
REMARK   34  A    between atoms: C1'_108  and  N1_109 
REMARK   35  A    between atoms: P_119  and  O5'_121 
REMARK   36  A    between atoms: C5'_120  and  O5'_121 
REMARK   37  A    between atoms: C5'_120  and  C4'_122 
REMARK   38  A    between atoms: C3'_124  and  O3'_125 
REMARK   39  A    between atoms: O3'_125  and  P_138 
REMARK   40  A    between atoms: C1'_127  and  N1_128 
REMARK   41  A    between atoms: P_138  and  O5'_140 
REMARK   42  A    between atoms: C5'_139  and  C4'_141 
REMARK   43  A    between atoms: C5'_139  and  O5'_140 
REMARK   44  A    between atoms: C3'_143  and  O3'_144 
REMARK   45  A    between atoms: O3'_144  and  P_159 
REMARK   46  A    between atoms: C1'_146  and  N9_156 
REMARK   47  A    between atoms: P_159  and  O5'_161 
REMARK   48  A    between atoms: C5'_160  and  O5'_161 
REMARK   49  A    between atoms: C5'_160  and  C4'_162 
REMARK   50  A    between atoms: C3'_164  and  O3'_165 
REMARK   51  A    between atoms: O3'_165  and  P_179 
REMARK   52  A    between atoms: C1'_167  and  N1_168 
REMARK   53  A    between atoms: P_179  and  O5'_181 
REMARK   54  A    between atoms: C5'_180  and  C4'_182 
REMARK   55  A    between atoms: C5'_180  and  O5'_181 
REMARK   56  A    between atoms: C3'_184  and  O3'_185 
REMARK   57  A    between atoms: O3'_185  and  P_201 
REMARK   58  A    between atoms: C1'_187  and  N9_198 
REMARK   59  A    between atoms: P_201  and  O5'_203 
REMARK   60  A    between atoms: C5'_202  and  O5'_203 
REMARK   61  A    between atoms: C5'_202  and  C4'_204 
REMARK   62  A    between atoms: C3'_206  and  O3'_207 
REMARK   63  A    between atoms: O3'_207  and  P_223 
REMARK   64  A    between atoms: C1'_209  and  N9_220 
REMARK   65  A    between atoms: P_223  and  O5'_225 
REMARK   66  A    between atoms: C5'_224  and  O5'_225 
REMARK   67  A    between atoms: C5'_224  and  C4'_226 
REMARK   68  A    between atoms: C3'_228  and  O3'_229 
REMARK   69  A    between atoms: O3'_229  and  P_243 
REMARK   70  A    between atoms: C1'_231  and  N1_232 
REMARK   71  A    between atoms: P_243  and  O5'_245 
REMARK   72  A    between atoms: C5'_244  and  C4'_246 
REMARK   73  A    between atoms: C5'_244  and  O5'_245 
REMARK   74  A    between atoms: C3'_248  and  O3'_249 
REMARK   75  A    between atoms: O3'_249  and  P_264 
REMARK   76  A    between atoms: C1'_251  and  N9_261 
REMARK   77  A    between atoms: P_264  and  O5'_266 
REMARK   78  A    between atoms: C5'_265  and  C4'_267 
REMARK   79  A    between atoms: C5'_265  and  O5'_266 
REMARK   80  A    between atoms: C3'_269  and  O3'_270 
REMARK   81  A    between atoms: O3'_270  and  P_285 
REMARK   82  A    between atoms: C1'_272  and  N9_282 
REMARK   83  A    between atoms: P_285  and  O5'_287 
REMARK   84  A    between atoms: C5'_286  and  O5'_287 
REMARK   85  A    between atoms: C5'_286  and  C4'_288 
REMARK   86  A    between atoms: C3'_290  and  O3'_291 
REMARK   87  A    between atoms: O3'_291  and  P_304 
REMARK   88  A    between atoms: C1'_293  and  N1_294 
REMARK   89  A    between atoms: P_304  and  O5'_306 
REMARK   90  A    between atoms: C5'_305  and  C4'_307 
REMARK   91  A    between atoms: C5'_305  and  O5'_306 
REMARK   92  A    between atoms: C1'_312  and  N9_323 
ROOT
HETATM    1  C5' BRU D   9      44.422  42.341  20.900  1.00 14.48     0.187 C 
ENDROOT
BRANCH   1   2
HETATM    2  O5' BRU D   9      43.205  41.630  20.783  1.00 12.82    -0.268 OA
BRANCH   2   3
HETATM    3  P   BRU D   9      43.199  40.136  20.262  1.00 11.11     0.410 P 
HETATM    4  OP1 BRU D   9      44.448  39.865  19.459  1.00 14.53    -0.624 OA
HETATM    5  OP2 BRU D   9      42.917  39.324  21.475  1.00 12.75    -0.624 OA
BRANCH   3   6
ATOM      6  O3'  DA D   8      42.047  40.138  19.175  1.00 11.43    -0.271 OA
BRANCH   6   7
ATOM      7  C3'  DA D   8      40.976  39.224  19.314  1.00 10.57     0.161 C 
ATOM      8  C4'  DA D   8      40.501  38.798  17.929  1.00 11.52     0.175 C 
ATOM      9  O4'  DA D   8      39.104  38.495  18.082  1.00 11.40    -0.333 OA
ATOM     10  C1'  DA D   8      38.579  39.157  19.245  1.00 11.23     0.210 C 
ATOM     11  C2'  DA D   8      39.744  39.894  19.902  1.00 12.23     0.087 C 
BRANCH   8  12
ATOM     12  C5'  DA D   8      41.199  37.602  17.333  1.00 13.06     0.187 C 
BRANCH  12  13
ATOM     13  O5'  DA D   8      41.231  36.543  18.259  1.00 11.03    -0.268 OA
BRANCH  13  14
ATOM     14  P    DA D   8      40.508  35.150  17.889  1.00 12.25     0.410 P 
ATOM     15  OP2  DA D   8      41.585  34.097  17.924  1.00 11.74    -0.624 OA
ATOM     16  OP1  DA D   8      39.703  35.314  16.668  1.00 15.55    -0.624 OA
BRANCH  14  17
ATOM     17  O3'  DC D   7      39.484  34.889  19.092  1.00 12.10    -0.271 OA
BRANCH  17  18
ATOM     18  C3'  DC D   7      38.328  34.060  18.861  1.00 11.74     0.161 C 
ATOM     19  C2'  DC D   7      37.374  34.624  17.810  1.00 11.76     0.087 C 
ATOM     20  C1'  DC D   7      36.702  33.365  17.251  1.00 12.42     0.211 C 
ATOM     21  O4'  DC D   7      37.605  32.293  17.497  1.00 12.34    -0.333 OA
ATOM     22  C4'  DC D   7      38.777  32.767  18.215  1.00 11.56     0.175 C 
BRANCH  20  23
ATOM     23  N1   DC D   7      35.484  33.090  18.049  1.00 11.09    -0.256 N 
ATOM     24  C2   DC D   7      34.292  33.671  17.610  1.00  9.80     0.353 A 
ATOM     25  O2   DC D   7      34.368  34.415  16.616  1.00 10.91    -0.244 OA
ATOM     26  N3   DC D   7      33.124  33.435  18.257  1.00  9.76    -0.171 NA
ATOM     27  C4   DC D   7      33.115  32.690  19.350  1.00 11.68     0.190 A 
ATOM     28  N4   DC D   7      31.927  32.479  19.984  1.00 10.83    -0.127 N 
ATOM     29  C5   DC D   7      34.334  32.090  19.861  1.00 10.32     0.060 A 
ATOM     30  C6   DC D   7      35.488  32.319  19.177  1.00 11.95     0.085 A 
ENDBRANCH  20  23
BRANCH  22  31
ATOM     31  C5'  DC D   7      39.244  31.703  19.169  1.00 14.18     0.187 C 
BRANCH  31  32
ATOM     32  O5'  DC D   7      38.155  31.363  20.037  1.00 16.43    -0.268 OA
BRANCH  32  33
ATOM     33  P    DC D   7      37.951  29.848  20.467  1.00 18.54     0.410 P 
ATOM     34  OP1  DC D   7      37.118  29.219  19.454  1.00 22.71    -0.624 OA
ATOM     35  OP2  DC D   7      39.273  29.330  20.809  1.00 19.79    -0.624 OA
BRANCH  33  36
ATOM     36  O3'  DC D   6      36.966  29.988  21.738  1.00 17.13    -0.271 OA
BRANCH  36  37
ATOM     37  C3'  DC D   6      37.102  31.068  22.633  1.00 14.94     0.161 C 
ATOM     38  C4'  DC D   6      37.972  30.589  23.789  1.00 15.77     0.175 C 
ATOM     39  O4'  DC D   6      37.043  30.161  24.801  1.00 13.81    -0.333 OA
ATOM     40  C1'  DC D   6      35.747  30.190  24.272  1.00 12.86     0.211 C 
ATOM     41  C2'  DC D   6      35.757  31.329  23.285  1.00 14.65     0.087 C 
BRANCH  38  42
ATOM     42  C5'  DC D   6      38.877  31.666  24.335  1.00 18.13     0.187 C 
BRANCH  42  43
ATOM     43  O5'  DC D   6      39.082  32.664  23.339  1.00 19.27    -0.268 OA
BRANCH  43  44
ATOM     44  P    DC D   6      40.567  33.045  22.868  1.00 19.84     0.410 P 
ATOM     45  OP1  DC D   6      41.102  31.801  22.255  1.00 24.35    -0.624 OA
ATOM     46  OP2  DC D   6      40.493  34.272  22.078  1.00 20.92    -0.624 OA
BRANCH  44  47
ATOM     47  O3'  DA D   5      41.309  33.248  24.262  1.00 19.93    -0.271 OA
BRANCH  47  48
ATOM     48  C3'  DA D   5      42.402  32.407  24.627  1.00 16.89     0.161 C 
ATOM     49  C4'  DA D   5      42.104  31.930  26.046  1.00 17.32     0.175 C 
ATOM     50  O4'  DA D   5      42.756  32.866  26.910  1.00 18.24    -0.333 OA
ATOM     51  C1'  DA D   5      43.536  33.795  26.135  1.00 15.77     0.210 C 
ATOM     52  C2'  DA D   5      43.716  33.174  24.765  1.00 16.34     0.087 C 
BRANCH  49  53
ATOM     53  C5'  DA D   5      42.489  30.496  26.339  1.00 17.61     0.187 C 
BRANCH  53  54
ATOM     54  O5'  DA D   5      43.207  30.437  27.568  1.00 19.33    -0.268 OA
BRANCH  54  55
ATOM     55  P    DA D   5      42.555  29.744  28.829  1.00 20.74     0.410 P 
ATOM     56  OP2  DA D   5      42.833  30.510  30.066  1.00 23.47    -0.624 OA
ATOM     57  OP1  DA D   5      42.907  28.289  28.745  1.00 23.99    -0.624 OA
BRANCH  55  58
ATOM     58  O3'  DT D   4      40.981  29.779  28.471  1.00 19.59    -0.271 OA
BRANCH  58  59
ATOM     59  C3'  DT D   4      39.983  30.003  29.490  1.00 18.10     0.161 C 
ATOM     60  C4'  DT D   4      39.882  28.730  30.347  1.00 15.82     0.175 C 
ATOM     61  O4'  DT D   4      38.686  28.049  29.924  1.00 16.38    -0.333 OA
ATOM     62  C1'  DT D   4      38.100  28.685  28.792  1.00 15.63     0.211 C 
ATOM     63  C2'  DT D   4      38.584  30.142  28.887  1.00 16.56     0.087 C 
BRANCH  60  64
ATOM     64  C5'  DT D   4      39.782  28.931  31.845  1.00 17.08     0.187 C 
BRANCH  64  65
ATOM     65  O5'  DT D   4      40.109  30.294  32.183  1.00 15.07    -0.268 OA
BRANCH  65  66
ATOM     66  P    DT D   4      40.102  30.757  33.711  1.00 15.11     0.410 P 
ATOM     67  OP1  DT D   4      39.327  29.737  34.524  1.00 18.00    -0.624 OA
ATOM     68  OP2  DT D   4      41.529  31.040  34.047  1.00 17.03    -0.624 OA
BRANCH  66  69
HETATM   69  O3' BRU D   3      39.196  32.031  33.679  1.00 15.24    -0.271 OA
BRANCH  69  70
HETATM   70  C3' BRU D   3      38.369  32.336  32.550  1.00 13.22     0.161 C 
HETATM   71  C4' BRU D   3      38.045  33.820  32.722  1.00 14.89     0.175 C 
HETATM   72  O4' BRU D   3      36.619  33.951  32.562  1.00 16.05    -0.333 OA
HETATM   73  C1' BRU D   3      36.039  32.739  33.033  1.00 15.34     0.211 C 
HETATM   74  C2' BRU D   3      36.992  31.658  32.499  1.00 12.90     0.087 C 
BRANCH  71  75
HETATM   75  C5' BRU D   3      38.790  34.829  31.886  1.00 17.61     0.187 C 
BRANCH  75  76
HETATM   76  O5' BRU D   3      39.958  35.280  32.543  1.00 15.66    -0.268 OA
BRANCH  76  77
HETATM   77  P   BRU D   3      41.258  35.530  31.648  1.00 16.77     0.410 P 
HETATM   78  OP1 BRU D   3      42.421  35.499  32.581  1.00 18.57    -0.624 OA
HETATM   79  OP2 BRU D   3      41.211  34.633  30.460  1.00 18.18    -0.624 OA
BRANCH  77  80
ATOM     80  O3'  DG D   2      41.112  37.031  31.139  1.00 17.32    -0.271 OA
BRANCH  80  81
ATOM     81  C3'  DG D   2      40.952  37.325  29.761  1.00 15.47     0.161 C 
ATOM     82  C2'  DG D   2      39.466  37.547  29.445  1.00 16.87     0.087 C 
ATOM     83  C1'  DG D   2      39.230  38.955  29.990  1.00 16.11     0.210 C 
ATOM     84  O4'  DG D   2      40.475  39.645  29.817  1.00 18.37    -0.333 OA
ATOM     85  C4'  DG D   2      41.560  38.718  29.595  1.00 18.34     0.175 C 
BRANCH  83  86
ATOM     86  N9   DG D   2      38.218  39.741  29.287  1.00 16.03    -0.272 N 
ATOM     87  C8   DG D   2      37.963  39.770  27.936  1.00 14.57     0.182 A 
ATOM     88  N7   DG D   2      37.055  40.654  27.595  1.00 16.34    -0.217 NA
ATOM     89  C5   DG D   2      36.684  41.244  28.816  1.00 13.99     0.175 A 
ATOM     90  C6   DG D   2      35.753  42.291  29.086  1.00 12.33     0.302 A 
ATOM     91  C4   DG D   2      37.367  40.662  29.870  1.00 12.94     0.172 A 
ATOM     92  O6   DG D   2      35.086  42.910  28.278  1.00 15.71    -0.263 OA
ATOM     93  N1   DG D   2      35.673  42.583  30.430  1.00 12.85    -0.174 NA
ATOM     94  C2   DG D   2      36.385  41.943  31.427  1.00 12.30     0.242 A 
ATOM     95  N2   DG D   2      36.152  42.349  32.732  1.00 15.13    -0.059 NA
ATOM     96  N3   DG D   2      37.273  40.944  31.189  1.00 14.89    -0.195 NA
ENDBRANCH  83  86
BRANCH  85  97
ATOM     97  C5'  DG D   2      42.223  38.994  28.267  1.00 20.11     0.187 C 
BRANCH  97  98
ATOM     98  O5'  DG D   2      43.633  39.110  28.423  1.00 21.44    -0.268 OA
BRANCH  98  99
ATOM     99  P    DG D   2      44.371  40.480  28.126  1.00 23.19     0.410 P 
ATOM    100  OP1  DG D   2      45.761  40.267  28.622  1.00 25.33    -0.624 OA
ATOM    101  OP2  DG D   2      44.144  40.978  26.760  1.00 23.21    -0.624 OA
BRANCH  99 102
ATOM    102  O3'  DC D   1      43.681  41.545  29.102  1.00 26.59    -0.271 OA
BRANCH 102 103
ATOM    103  C3'  DC D   1      44.358  41.905  30.299  1.00 27.88     0.161 C 
ATOM    104  C2'  DC D   1      43.827  43.254  30.742  1.00 26.06     0.087 C 
ATOM    105  C1'  DC D   1      42.494  42.841  31.319  1.00 24.51     0.211 C 
ATOM    106  O4'  DC D   1      42.735  41.589  31.982  1.00 29.50    -0.333 OA
ATOM    107  C4'  DC D   1      43.885  40.959  31.394  1.00 29.48     0.178 C 
BRANCH 105 108
ATOM    108  N1   DC D   1      41.866  43.729  32.305  1.00 21.38    -0.256 N 
ATOM    109  C6   DC D   1      42.556  44.758  32.886  1.00 19.62     0.085 A 
ATOM    110  C5   DC D   1      41.991  45.506  33.855  1.00 19.43     0.060 A 
ATOM    111  C4   DC D   1      40.639  45.205  34.209  1.00 17.00     0.190 A 
ATOM    112  N4   DC D   1      40.008  45.915  35.144  1.00 18.52    -0.127 N 
ATOM    113  N3   DC D   1      39.955  44.213  33.616  1.00 17.32    -0.171 NA
ATOM    114  C2   DC D   1      40.551  43.466  32.675  1.00 18.49     0.353 A 
ATOM    115  O2   DC D   1      39.951  42.535  32.128  1.00 18.51    -0.244 OA
ENDBRANCH 105 108
BRANCH 107 116
ATOM    116  C5'  DC D   1      44.908  40.627  32.458  1.00 31.78     0.214 C 
ATOM    117  O5'  DC D   1      45.426  39.309  32.260  1.00 34.90    -0.218 OA
ENDBRANCH 107 116
ENDBRANCH 102 103
ENDBRANCH  99 102
ENDBRANCH  98  99
ENDBRANCH  97  98
ENDBRANCH  85  97
ENDBRANCH  80  81
ENDBRANCH  77  80
ENDBRANCH  76  77
ENDBRANCH  75  76
ENDBRANCH  71  75
BRANCH  73 118
HETATM  118  N1  BRU D   3      34.681  32.655  32.491  1.00 13.25    -0.255 N 
HETATM  119  C2  BRU D   3      34.467  32.692  31.095  1.00 11.90     0.354 A 
HETATM  120  O2  BRU D   3      35.371  32.827  30.293  1.00 16.11    -0.244 OA
HETATM  121  N3  BRU D   3      33.175  32.571  30.692  1.00 12.15    -0.153 NA
HETATM  122  C4  BRU D   3      32.111  32.395  31.486  1.00 12.48     0.291 A 
HETATM  123  O4  BRU D   3      30.945  32.330  31.045  1.00 16.38    -0.264 OA
HETATM  124  C5  BRU D   3      32.452  32.398  32.866  1.00 14.67     0.110 A 
HETATM  125  C6  BRU D   3      33.672  32.528  33.300  1.00 13.17     0.094 A 
HETATM  126 BR   BRU D   3      30.881  32.229  34.257  1.00 24.07    -0.043 Br
ENDBRANCH  73 118
ENDBRANCH  69  70
ENDBRANCH  66  69
ENDBRANCH  65  66
ENDBRANCH  64  65
ENDBRANCH  60  64
BRANCH  62 127
ATOM    127  N1   DT D   4      36.634  28.425  28.879  1.00 13.98    -0.256 N 
ATOM    128  C2   DT D   4      36.031  27.747  27.856  1.00 13.56     0.354 A 
ATOM    129  O2   DT D   4      36.662  27.406  26.858  1.00 16.57    -0.244 OA
ATOM    130  N3   DT D   4      34.683  27.456  28.028  1.00 12.35    -0.153 NA
ATOM    131  C4   DT D   4      33.914  27.787  29.139  1.00 11.46     0.280 A 
ATOM    132  O4   DT D   4      32.727  27.434  29.229  1.00 13.76    -0.265 OA
ATOM    133  C5   DT D   4      34.615  28.562  30.145  1.00 12.51     0.053 A 
ATOM    134  C7   DT D   4      33.858  29.036  31.341  1.00 14.43     0.038 C 
ATOM    135  C6   DT D   4      35.912  28.829  29.983  1.00 14.14     0.083 A 
ENDBRANCH  62 127
ENDBRANCH  58  59
ENDBRANCH  55  58
ENDBRANCH  54  55
ENDBRANCH  53  54
ENDBRANCH  49  53
BRANCH  51 136
ATOM    136  N9   DA D   5      44.777  33.973  26.901  1.00 14.16    -0.272 N 
ATOM    137  C4   DA D   5      44.908  34.727  28.047  1.00 14.21     0.170 A 
ATOM    138  C5   DA D   5      46.173  34.434  28.536  1.00 12.40     0.155 A 
ATOM    139  N3   DA D   5      44.015  35.557  28.599  1.00 13.46    -0.205 NA
ATOM    140  C6   DA D   5      46.573  35.065  29.713  1.00 12.04     0.206 A 
ATOM    141  N7   DA D   5      46.814  33.553  27.705  1.00 14.47    -0.219 NA
ATOM    142  N6   DA D   5      47.783  34.854  30.268  1.00 12.46    -0.125 N 
ATOM    143  N1   DA D   5      45.702  35.917  30.304  1.00 13.98    -0.202 NA
ATOM    144  C2   DA D   5      44.499  36.093  29.723  1.00 14.25     0.202 A 
ATOM    145  C8   DA D   5      45.962  33.337  26.729  1.00 14.09     0.182 A 
ENDBRANCH  51 136
ENDBRANCH  47  48
ENDBRANCH  44  47
ENDBRANCH  43  44
ENDBRANCH  42  43
ENDBRANCH  38  42
BRANCH  40 146
ATOM    146  N1   DC D   6      34.774  30.273  25.400  1.00 11.89    -0.256 N 
ATOM    147  C2   DC D   6      33.565  29.569  25.264  1.00 11.45     0.353 A 
ATOM    148  O2   DC D   6      33.437  28.838  24.305  1.00 12.57    -0.244 OA
ATOM    149  N3   DC D   6      32.588  29.719  26.198  1.00 11.17    -0.171 NA
ATOM    150  C4   DC D   6      32.800  30.492  27.258  1.00 11.08     0.190 A 
ATOM    151  N4   DC D   6      31.821  30.648  28.164  1.00 10.70    -0.127 N 
ATOM    152  C5   DC D   6      34.059  31.176  27.449  1.00 10.83     0.060 A 
ATOM    153  C6   DC D   6      34.999  31.033  26.498  1.00 11.79     0.085 A 
ENDBRANCH  40 146
ENDBRANCH  36  37
ENDBRANCH  33  36
ENDBRANCH  32  33
ENDBRANCH  31  32
ENDBRANCH  22  31
ENDBRANCH  17  18
ENDBRANCH  14  17
ENDBRANCH  13  14
ENDBRANCH  12  13
ENDBRANCH   8  12
BRANCH  10 154
ATOM    154  N9   DA D   8      38.089  38.113  20.145  1.00 10.83    -0.272 N 
ATOM    155  C4   DA D   8      36.856  37.522  20.029  1.00  9.99     0.170 A 
ATOM    156  N3   DA D   8      35.897  37.796  19.104  1.00 10.21    -0.205 NA
ATOM    157  C5   DA D   8      36.809  36.562  21.015  1.00 10.31     0.155 A 
ATOM    158  C2   DA D   8      34.858  37.013  19.260  1.00 10.39     0.202 A 
ATOM    159  N1   DA D   8      34.665  36.043  20.181  1.00 11.14    -0.202 NA
ATOM    160  C6   DA D   8      35.656  35.764  21.059  1.00 10.09     0.206 A 
ATOM    161  N6   DA D   8      35.487  34.732  21.872  1.00 11.37    -0.125 N 
ATOM    162  N7   DA D   8      37.991  36.583  21.778  1.00 10.47    -0.219 NA
ATOM    163  C8   DA D   8      38.703  37.537  21.218  1.00 11.39     0.182 A 
ENDBRANCH  10 154
ENDBRANCH   6   7
ENDBRANCH   3   6
ENDBRANCH   2   3
ENDBRANCH   1   2
BRANCH   1 164
HETATM  164  C4' BRU D   9      44.710  42.655  22.350  1.00 14.07     0.175 C 
HETATM  165  O4' BRU D   9      45.459  43.905  22.426  1.00 13.32    -0.333 OA
HETATM  166  C1' BRU D   9      45.195  44.537  23.676  1.00 13.84     0.211 C 
HETATM  167  C2' BRU D   9      44.033  43.814  24.323  1.00 12.11     0.087 C 
HETATM  168  C3' BRU D   9      43.501  42.898  23.231  1.00 15.00     0.161 C 
BRANCH 166 169
HETATM  169  N1  BRU D   9      44.760  45.910  23.403  1.00 13.67    -0.255 N 
HETATM  170  C2  BRU D   9      44.790  46.805  24.412  1.00 11.22     0.354 A 
HETATM  171  O2  BRU D   9      45.127  46.478  25.528  1.00 13.50    -0.244 OA
HETATM  172  N3  BRU D   9      44.425  48.102  24.080  1.00 11.85    -0.153 NA
HETATM  173  C4  BRU D   9      44.050  48.505  22.860  1.00 10.30     0.291 A 
HETATM  174  O4  BRU D   9      43.832  49.722  22.619  1.00 12.93    -0.264 OA
HETATM  175  C5  BRU D   9      44.015  47.439  21.896  1.00 12.08     0.110 A 
HETATM  176  C6  BRU D   9      44.356  46.229  22.185  1.00 13.06     0.094 A 
HETATM  177 BR   BRU D   9      43.421  48.130  20.034  1.00 15.13    -0.043 Br
ENDBRANCH 166 169
BRANCH 168 178
HETATM  178  O3' BRU D   9      43.028  41.683  23.796  1.00 13.15    -0.271 OA
BRANCH 178 179
ATOM    179  P    DG D  10      41.501  41.599  24.197  1.00 14.52     0.410 P 
ATOM    180  OP2  DG D  10      41.130  42.567  25.281  1.00 14.92    -0.624 OA
ATOM    181  OP1  DG D  10      40.724  41.608  22.908  1.00 16.08    -0.624 OA
BRANCH 179 182
ATOM    182  O5'  DG D  10      41.345  40.147  24.883  1.00 14.63    -0.268 OA
BRANCH 182 183
ATOM    183  C5'  DG D  10      40.075  39.623  25.233  1.00 14.28     0.187 C 
BRANCH 183 184
ATOM    184  C4'  DG D  10      39.908  38.252  24.627  1.00 14.53     0.175 C 
ATOM    185  C3'  DG D  10      39.714  37.112  25.615  1.00 16.36     0.161 C 
ATOM    186  C2'  DG D  10      41.131  36.571  25.790  1.00 15.07     0.087 C 
ATOM    187  C1'  DG D  10      41.645  36.714  24.375  1.00 13.41     0.210 C 
ATOM    188  O4'  DG D  10      41.105  37.928  23.875  1.00 13.85    -0.333 OA
BRANCH 185 189
ATOM    189  O3'  DG D  10      38.857  36.197  24.930  1.00 20.48    -0.271 OA
BRANCH 189 190
ATOM    190  P    DG D  11      37.907  35.193  25.753  1.00 20.71     0.410 P 
ATOM    191  OP2  DG D  11      36.867  34.531  24.935  1.00 22.10    -0.624 OA
ATOM    192  OP1  DG D  11      38.812  34.393  26.619  1.00 24.32    -0.624 OA
BRANCH 190 193
ATOM    193  O5'  DG D  11      37.123  36.167  26.722  1.00 19.33    -0.268 OA
BRANCH 193 194
ATOM    194  C5'  DG D  11      36.799  35.732  28.037  1.00 18.66     0.187 C 
BRANCH 194 195
ATOM    195  C4'  DG D  11      35.308  35.831  28.234  1.00 18.71     0.175 C 
ATOM    196  C3'  DG D  11      34.694  37.020  27.523  1.00 19.69     0.161 C 
ATOM    197  C2'  DG D  11      34.717  38.101  28.589  1.00 18.26     0.087 C 
ATOM    198  C1'  DG D  11      34.388  37.283  29.832  1.00 15.98     0.210 C 
ATOM    199  O4'  DG D  11      34.916  35.984  29.618  1.00 17.85    -0.333 OA
BRANCH 196 200
ATOM    200  O3'  DG D  11      33.356  36.626  27.262  1.00 24.65    -0.271 OA
BRANCH 200 201
ATOM    201  P    DT D  12      33.014  35.904  25.917  1.00 28.19     0.410 P 
ATOM    202  OP2  DT D  12      34.023  36.094  24.851  1.00 27.85    -0.624 OA
ATOM    203  OP1  DT D  12      32.609  34.540  26.366  1.00 29.91    -0.624 OA
BRANCH 201 204
ATOM    204  O5'  DT D  12      31.752  36.689  25.371  1.00 28.66    -0.268 OA
BRANCH 204 205
ATOM    205  C5'  DT D  12      31.323  37.790  26.106  1.00 29.00     0.187 C 
BRANCH 205 206
ATOM    206  C4'  DT D  12      31.152  38.980  25.219  1.00 28.07     0.175 C 
ATOM    207  C3'  DT D  12      32.411  39.590  24.635  1.00 29.44     0.161 C 
ATOM    208  C2'  DT D  12      32.421  41.005  25.199  1.00 29.37     0.087 C 
ATOM    209  C1'  DT D  12      30.934  41.271  25.476  1.00 27.26     0.211 C 
ATOM    210  O4'  DT D  12      30.415  40.032  25.861  1.00 26.37    -0.333 OA
BRANCH 207 211
ATOM    211  O3'  DT D  12      32.102  39.542  23.267  1.00 31.26    -0.271 OA
BRANCH 211 212
ATOM    212  P    DA D  13      32.908  38.594  22.280  1.00 34.05     0.410 P 
ATOM    213  OP2  DA D  13      34.333  38.523  22.725  1.00 31.89    -0.624 OA
ATOM    214  OP1  DA D  13      32.078  37.381  22.241  1.00 33.32    -0.624 OA
BRANCH 212 215
ATOM    215  O5'  DA D  13      32.718  39.368  20.913  1.00 31.02    -0.268 OA
BRANCH 215 216
ATOM    216  C5'  DA D  13      33.486  40.540  20.642  1.00 27.53     0.187 C 
BRANCH 216 217
ATOM    217  C4'  DA D  13      32.572  41.664  20.222  1.00 25.33     0.175 C 
ATOM    218  O4'  DA D  13      31.187  41.236  20.216  1.00 22.92    -0.333 OA
ATOM    219  C1'  DA D  13      30.399  42.048  21.091  1.00 20.98     0.210 C 
ATOM    220  C2'  DA D  13      31.399  42.749  22.023  1.00 23.30     0.087 C 
ATOM    221  C3'  DA D  13      32.628  42.893  21.137  1.00 26.45     0.161 C 
BRANCH 219 222
ATOM    222  N9   DA D  13      29.471  41.150  21.763  1.00 17.31    -0.272 N 
ATOM    223  C8   DA D  13      29.260  39.844  21.487  1.00 17.58     0.182 A 
ATOM    224  N7   DA D  13      28.280  39.303  22.161  1.00 17.72    -0.219 NA
ATOM    225  C5   DA D  13      27.839  40.312  22.976  1.00 14.33     0.155 A 
ATOM    226  C6   DA D  13      26.831  40.389  23.950  1.00 14.45     0.206 A 
ATOM    227  C4   DA D  13      28.576  41.471  22.753  1.00 15.76     0.170 A 
ATOM    228  N6   DA D  13      25.986  39.368  24.271  1.00 15.52    -0.125 N 
ATOM    229  N1   DA D  13      26.696  41.551  24.588  1.00 14.59    -0.202 NA
ATOM    230  C2   DA D  13      27.472  42.591  24.256  1.00 15.74     0.202 A 
ATOM    231  N3   DA D  13      28.427  42.656  23.341  1.00 15.60    -0.205 NA
ENDBRANCH 219 222
BRANCH 221 232
ATOM    232  O3'  DA D  13      32.507  44.054  20.340  1.00 30.43    -0.271 OA
BRANCH 232 233
ATOM    233  P    DA D  14      33.212  45.400  20.818  1.00 32.07     0.410 P 
ATOM    234  OP2  DA D  14      33.737  46.092  19.651  1.00 33.16    -0.624 OA
ATOM    235  OP1  DA D  14      32.229  46.067  21.714  1.00 33.96    -0.624 OA
BRANCH 233 236
ATOM    236  O5'  DA D  14      34.381  44.866  21.720  1.00 31.87    -0.268 OA
BRANCH 236 237
ATOM    237  C5'  DA D  14      35.709  44.942  21.228  1.00 30.81     0.187 C 
BRANCH 237 238
ATOM    238  C4'  DA D  14      36.175  43.564  20.846  1.00 31.39     0.175 C 
ATOM    239  O4'  DA D  14      36.423  43.504  19.417  1.00 30.66    -0.333 OA
ATOM    240  C1'  DA D  14      37.729  43.000  19.215  1.00 28.20     0.210 C 
ATOM    241  C2'  DA D  14      38.522  43.443  20.429  1.00 29.16     0.087 C 
ATOM    242  C3'  DA D  14      37.492  43.175  21.510  1.00 31.09     0.161 C 
BRANCH 240 243
ATOM    243  N9   DA D  14      38.208  43.472  17.932  1.00 24.41    -0.272 N 
ATOM    244  C4   DA D  14      39.369  44.184  17.808  1.00 21.62     0.170 A 
ATOM    245  N3   DA D  14      40.238  44.486  18.799  1.00 18.94    -0.205 NA
ATOM    246  C5   DA D  14      39.434  44.553  16.491  1.00 22.12     0.155 A 
ATOM    247  C2   DA D  14      41.225  45.273  18.323  1.00 18.83     0.202 A 
ATOM    248  N1   DA D  14      41.402  45.687  17.086  1.00 18.79    -0.202 NA
ATOM    249  C6   DA D  14      40.511  45.322  16.120  1.00 19.52     0.206 A 
ATOM    250  N6   DA D  14      40.706  45.698  14.872  1.00 21.07    -0.125 N 
ATOM    251  N7   DA D  14      38.345  44.055  15.774  1.00 24.53    -0.219 NA
ATOM    252  C8   DA D  14      37.663  43.396  16.680  1.00 24.70     0.182 A 
ENDBRANCH 240 243
BRANCH 242 253
ATOM    253  O3'  DA D  14      37.397  41.791  21.764  1.00 31.14    -0.271 OA
BRANCH 253 254
ATOM    254  P    DC D  15      36.792  41.260  23.154  1.00 30.59     0.410 P 
ATOM    255  OP1  DC D  15      37.201  39.829  23.253  1.00 31.75    -0.624 OA
ATOM    256  OP2  DC D  15      35.363  41.653  23.347  1.00 29.87    -0.624 OA
BRANCH 254 257
ATOM    257  O5'  DC D  15      37.725  42.083  24.163  1.00 30.76    -0.268 OA
BRANCH 257 258
ATOM    258  C5'  DC D  15      37.123  42.941  25.169  1.00 28.28     0.187 C 
BRANCH 258 259
ATOM    259  C4'  DC D  15      38.051  44.080  25.550  1.00 28.15     0.175 C 
ATOM    260  O4'  DC D  15      37.919  45.199  24.645  1.00 23.18    -0.333 OA
ATOM    261  C1'  DC D  15      37.587  46.392  25.357  1.00 22.58     0.211 C 
ATOM    262  C2'  DC D  15      37.116  45.946  26.732  1.00 24.52     0.087 C 
ATOM    263  C3'  DC D  15      37.872  44.650  26.950  1.00 28.37     0.161 C 
BRANCH 261 264
ATOM    264  N1   DC D  15      36.523  47.064  24.607  1.00 18.64    -0.256 N 
ATOM    265  C6   DC D  15      36.812  48.110  23.772  1.00 16.47     0.085 A 
ATOM    266  C5   DC D  15      35.852  48.784  23.147  1.00 15.01     0.060 A 
ATOM    267  C4   DC D  15      34.490  48.373  23.403  1.00 13.33     0.190 A 
ATOM    268  N3   DC D  15      34.214  47.306  24.150  1.00 13.89    -0.171 NA
ATOM    269  N4   DC D  15      33.488  49.076  22.909  1.00 15.28    -0.127 N 
ATOM    270  C2   DC D  15      35.188  46.638  24.772  1.00 18.12     0.353 A 
ATOM    271  O2   DC D  15      34.964  45.658  25.519  1.00 20.47    -0.244 OA
ENDBRANCH 261 264
BRANCH 263 272
ATOM    272  O3'  DC D  15      39.139  44.947  27.517  1.00 31.34    -0.271 OA
BRANCH 272 273
ATOM    273  P    DG D  16      39.557  44.244  28.876  1.00 32.78     0.410 P 
ATOM    274  OP1  DG D  16      40.035  42.873  28.534  1.00 34.59    -0.624 OA
ATOM    275  OP2  DG D  16      38.427  44.423  29.822  1.00 31.45    -0.624 OA
BRANCH 273 276
ATOM    276  O5'  DG D  16      40.769  45.132  29.379  1.00 31.83    -0.268 OA
BRANCH 276 277
ATOM    277  C5'  DG D  16      40.541  46.324  30.114  1.00 31.48     0.187 C 
BRANCH 277 278
ATOM    278  C4'  DG D  16      41.227  47.476  29.426  1.00 29.56     0.178 C 
ATOM    279  C3'  DG D  16      40.347  48.716  29.218  1.00 29.50     0.186 C 
ATOM    280  C2'  DG D  16      39.972  48.620  27.746  1.00 28.21     0.090 C 
ATOM    281  O3'  DG D  16      41.164  49.897  29.386  1.00 31.52    -0.221 OA
ATOM    282  C1'  DG D  16      41.256  48.070  27.185  1.00 24.75     0.210 C 
ATOM    283  O4'  DG D  16      41.650  47.076  28.105  1.00 27.49    -0.333 OA
BRANCH 282 284
ATOM    284  N9   DG D  16      41.159  47.446  25.877  1.00 21.33    -0.271 N 
ATOM    285  C4   DG D  16      40.818  48.080  24.718  1.00 19.88     0.188 A 
ATOM    286  N3   DG D  16      40.552  49.410  24.586  1.00 18.33    -0.038 NA
ATOM    287  C5   DG D  16      40.802  47.097  23.756  1.00 17.85     0.176 A 
ATOM    288  C2   DG D  16      40.242  49.731  23.363  1.00 15.82     0.773 A 
ATOM    289  N1   DG D  16      40.172  48.806  22.328  1.00 16.33    -0.016 NA
ATOM    290  N2   DG D  16      39.982  51.038  23.041  1.00 16.23     0.062 N 
ATOM    291  C6   DG D  16      40.446  47.447  22.439  1.00 15.94     0.316 A 
ATOM    292  O6   DG D  16      40.345  46.717  21.415  1.00 18.70    -0.263 OA
ATOM    293  N7   DG D  16      41.181  45.875  24.301  1.00 18.48    -0.217 NA
ATOM    294  C8   DG D  16      41.370  46.131  25.565  1.00 19.50     0.182 A 
ENDBRANCH 282 284
ENDBRANCH 277 278
ENDBRANCH 276 277
ENDBRANCH 273 276
ENDBRANCH 272 273
ENDBRANCH 263 272
ENDBRANCH 258 259
ENDBRANCH 257 258
ENDBRANCH 254 257
ENDBRANCH 253 254
ENDBRANCH 242 253
ENDBRANCH 237 238
ENDBRANCH 236 237
ENDBRANCH 233 236
ENDBRANCH 232 233
ENDBRANCH 221 232
ENDBRANCH 216 217
ENDBRANCH 215 216
ENDBRANCH 212 215
ENDBRANCH 211 212
ENDBRANCH 207 211
BRANCH 209 295
ATOM    295  N1   DT D  12      30.616  42.190  26.576  1.00 25.54    -0.256 N 
ATOM    296  C6   DT D  12      30.278  41.718  27.828  1.00 22.97     0.083 A 
ATOM    297  C5   DT D  12      29.908  42.515  28.849  1.00 22.23     0.053 A 
ATOM    298  C4   DT D  12      29.870  43.932  28.616  1.00 20.03     0.280 A 
ATOM    299  C7   DT D  12      29.545  42.021  30.211  1.00 23.27     0.038 C 
ATOM    300  O4   DT D  12      29.519  44.740  29.471  1.00 18.53    -0.265 OA
ATOM    301  N3   DT D  12      30.258  44.348  27.341  1.00 19.51    -0.153 NA
ATOM    302  C2   DT D  12      30.631  43.548  26.296  1.00 22.25     0.354 A 
ATOM    303  O2   DT D  12      30.949  43.992  25.198  1.00 24.24    -0.244 OA
ENDBRANCH 209 295
ENDBRANCH 205 206
ENDBRANCH 204 205
ENDBRANCH 201 204
ENDBRANCH 200 201
ENDBRANCH 196 200
BRANCH 198 304
ATOM    304  N9   DG D  11      34.972  37.766  31.079  1.00 15.12    -0.271 N 
ATOM    305  C8   DG D  11      36.172  37.394  31.638  1.00 13.13     0.182 A 
ATOM    306  N7   DG D  11      36.372  37.920  32.818  1.00 13.46    -0.217 NA
ATOM    307  C5   DG D  11      35.233  38.682  33.053  1.00 11.37     0.176 A 
ATOM    308  C6   DG D  11      34.884  39.442  34.182  1.00 10.16     0.316 A 
ATOM    309  C4   DG D  11      34.371  38.628  31.983  1.00 12.33     0.188 A 
ATOM    310  O6   DG D  11      35.490  39.538  35.227  1.00 10.86    -0.263 OA
ATOM    311  N1   DG D  11      33.665  40.110  33.990  1.00 10.07    -0.016 NA
ATOM    312  C2   DG D  11      32.869  40.008  32.851  1.00 11.41     0.773 A 
ATOM    313  N2   DG D  11      31.726  40.755  32.803  1.00 10.83     0.062 N 
ATOM    314  N3   DG D  11      33.178  39.243  31.820  1.00 11.83    -0.038 NA
ENDBRANCH 198 304
ENDBRANCH 194 195
ENDBRANCH 193 194
ENDBRANCH 190 193
ENDBRANCH 189 190
ENDBRANCH 185 189
BRANCH 187 315
ATOM    315  N9   DG D  10      43.097  36.803  24.319  1.00 11.23    -0.271 N 
ATOM    316  C8   DG D  10      43.958  37.252  25.304  1.00 12.20     0.182 A 
ATOM    317  N7   DG D  10      45.224  37.127  24.965  1.00 12.66    -0.217 NA
ATOM    318  C5   DG D  10      45.181  36.601  23.678  1.00 10.47     0.176 A 
ATOM    319  C4   DG D  10      43.882  36.403  23.267  1.00 10.52     0.188 A 
ATOM    320  C6   DG D  10      46.246  36.261  22.759  1.00 11.39     0.316 A 
ATOM    321  N3   DG D  10      43.443  35.924  22.088  1.00 10.98    -0.038 NA
ATOM    322  C2   DG D  10      44.440  35.573  21.284  1.00  8.78     0.773 A 
ATOM    323  N1   DG D  10      45.766  35.737  21.582  1.00  9.45    -0.016 NA
ATOM    324  N2   DG D  10      44.188  35.006  20.109  1.00 10.60     0.062 N 
ATOM    325  O6   DG D  10      47.484  36.404  22.898  1.00 10.46    -0.263 OA
ENDBRANCH 187 315
ENDBRANCH 183 184
ENDBRANCH 182 183
ENDBRANCH 179 182
ENDBRANCH 178 179
ENDBRANCH 168 178
ENDBRANCH   1 164
TORSDOF 92
ENDMDL
MODEL 7
REMARK VINA RESULT:      -0.1      4.160     12.919
REMARK WARNING: 32 MAX_TORS EXCEEDED!!!
REMARK  92 active torsions:
REMARK  status: ('A' for Active; 'I' for Inactive)
REMARK    1  A    between atoms: C5'_1  and  C4'_3 
REMARK    2  A    between atoms: C3'_5  and  O3'_6 
REMARK    3  A    between atoms: O3'_6  and  P_17 
REMARK    4  A    between atoms: C1'_8  and  N1_9 
REMARK    5  A    between atoms: P_17  and  O5'_19 
REMARK    6  A    between atoms: C5'_18  and  O5'_19 
REMARK    7  A    between atoms: C5'_18  and  C4'_20 
REMARK    8  A    between atoms: C3'_22  and  O3'_23 
REMARK    9  A    between atoms: O3'_23  and  P_39 
REMARK   10  A    between atoms: C1'_25  and  N9_36 
REMARK   11  A    between atoms: P_39  and  O5'_41 
REMARK   12  A    between atoms: C5'_40  and  O5'_41 
REMARK   13  A    between atoms: C5'_40  and  C4'_42 
REMARK   14  A    between atoms: C3'_44  and  O3'_45 
REMARK   15  A    between atoms: O3'_45  and  P_59 
REMARK   16  A    between atoms: C1'_47  and  N1_48 
REMARK   17  A    between atoms: P_59  and  O5'_61 
REMARK   18  A    between atoms: C5'_60  and  C4'_62 
REMARK   19  A    between atoms: C5'_60  and  O5'_61 
REMARK   20  A    between atoms: C3'_64  and  O3'_65 
REMARK   21  A    between atoms: O3'_65  and  P_79 
REMARK   22  A    between atoms: C1'_67  and  N1_68 
REMARK   23  A    between atoms: P_79  and  O5'_81 
REMARK   24  A    between atoms: C5'_80  and  C4'_82 
REMARK   25  A    between atoms: C5'_80  and  O5'_81 
REMARK   26  A    between atoms: C3'_84  and  O3'_85 
REMARK   27  A    between atoms: O3'_85  and  P_100 
REMARK   28  A    between atoms: C1'_87  and  N9_97 
REMARK   29  A    between atoms: P_100  and  O5'_102 
REMARK   30  A    between atoms: C5'_101  and  C4'_103 
REMARK   31  A    between atoms: C5'_101  and  O5'_102 
REMARK   32  A    between atoms: C3'_105  and  O3'_106 
REMARK   33  A    between atoms: O3'_106  and  P_119 
REMARK   34  A    between atoms: C1'_108  and  N1_109 
REMARK   35  A    between atoms: P_119  and  O5'_121 
REMARK   36  A    between atoms: C5'_120  and  O5'_121 
REMARK   37  A    between atoms: C5'_120  and  C4'_122 
REMARK   38  A    between atoms: C3'_124  and  O3'_125 
REMARK   39  A    between atoms: O3'_125  and  P_138 
REMARK   40  A    between atoms: C1'_127  and  N1_128 
REMARK   41  A    between atoms: P_138  and  O5'_140 
REMARK   42  A    between atoms: C5'_139  and  C4'_141 
REMARK   43  A    between atoms: C5'_139  and  O5'_140 
REMARK   44  A    between atoms: C3'_143  and  O3'_144 
REMARK   45  A    between atoms: O3'_144  and  P_159 
REMARK   46  A    between atoms: C1'_146  and  N9_156 
REMARK   47  A    between atoms: P_159  and  O5'_161 
REMARK   48  A    between atoms: C5'_160  and  O5'_161 
REMARK   49  A    between atoms: C5'_160  and  C4'_162 
REMARK   50  A    between atoms: C3'_164  and  O3'_165 
REMARK   51  A    between atoms: O3'_165  and  P_179 
REMARK   52  A    between atoms: C1'_167  and  N1_168 
REMARK   53  A    between atoms: P_179  and  O5'_181 
REMARK   54  A    between atoms: C5'_180  and  C4'_182 
REMARK   55  A    between atoms: C5'_180  and  O5'_181 
REMARK   56  A    between atoms: C3'_184  and  O3'_185 
REMARK   57  A    between atoms: O3'_185  and  P_201 
REMARK   58  A    between atoms: C1'_187  and  N9_198 
REMARK   59  A    between atoms: P_201  and  O5'_203 
REMARK   60  A    between atoms: C5'_202  and  O5'_203 
REMARK   61  A    between atoms: C5'_202  and  C4'_204 
REMARK   62  A    between atoms: C3'_206  and  O3'_207 
REMARK   63  A    between atoms: O3'_207  and  P_223 
REMARK   64  A    between atoms: C1'_209  and  N9_220 
REMARK   65  A    between atoms: P_223  and  O5'_225 
REMARK   66  A    between atoms: C5'_224  and  O5'_225 
REMARK   67  A    between atoms: C5'_224  and  C4'_226 
REMARK   68  A    between atoms: C3'_228  and  O3'_229 
REMARK   69  A    between atoms: O3'_229  and  P_243 
REMARK   70  A    between atoms: C1'_231  and  N1_232 
REMARK   71  A    between atoms: P_243  and  O5'_245 
REMARK   72  A    between atoms: C5'_244  and  C4'_246 
REMARK   73  A    between atoms: C5'_244  and  O5'_245 
REMARK   74  A    between atoms: C3'_248  and  O3'_249 
REMARK   75  A    between atoms: O3'_249  and  P_264 
REMARK   76  A    between atoms: C1'_251  and  N9_261 
REMARK   77  A    between atoms: P_264  and  O5'_266 
REMARK   78  A    between atoms: C5'_265  and  C4'_267 
REMARK   79  A    between atoms: C5'_265  and  O5'_266 
REMARK   80  A    between atoms: C3'_269  and  O3'_270 
REMARK   81  A    between atoms: O3'_270  and  P_285 
REMARK   82  A    between atoms: C1'_272  and  N9_282 
REMARK   83  A    between atoms: P_285  and  O5'_287 
REMARK   84  A    between atoms: C5'_286  and  O5'_287 
REMARK   85  A    between atoms: C5'_286  and  C4'_288 
REMARK   86  A    between atoms: C3'_290  and  O3'_291 
REMARK   87  A    between atoms: O3'_291  and  P_304 
REMARK   88  A    between atoms: C1'_293  and  N1_294 
REMARK   89  A    between atoms: P_304  and  O5'_306 
REMARK   90  A    between atoms: C5'_305  and  C4'_307 
REMARK   91  A    between atoms: C5'_305  and  O5'_306 
REMARK   92  A    between atoms: C1'_312  and  N9_323 
ROOT
HETATM    1  C5' BRU D   9      42.011  44.951  23.305  1.00 14.48     0.187 C 
ENDROOT
BRANCH   1   2
HETATM    2  O5' BRU D   9      42.218  43.780  22.540  1.00 12.82    -0.268 OA
BRANCH   2   3
HETATM    3  P   BRU D   9      41.305  42.507  22.763  1.00 11.11     0.410 P 
HETATM    4  OP1 BRU D   9      41.763  41.752  23.988  1.00 14.53    -0.624 OA
HETATM    5  OP2 BRU D   9      39.916  43.035  22.704  1.00 12.75    -0.624 OA
BRANCH   3   6
ATOM      6  O3'  DA D   8      41.711  41.556  21.563  1.00 11.43    -0.271 OA
BRANCH   6   7
ATOM      7  C3'  DA D   8      40.733  40.696  21.013  1.00 10.57     0.161 C 
ATOM      8  C4'  DA D   8      41.049  39.259  21.413  1.00 11.52     0.175 C 
ATOM      9  O4'  DA D   8      40.532  38.443  20.349  1.00 11.40    -0.333 OA
ATOM     10  C1'  DA D   8      40.399  39.223  19.149  1.00 11.23     0.210 C 
ATOM     11  C2'  DA D   8      40.819  40.650  19.495  1.00 12.23     0.087 C 
BRANCH   8  12
ATOM     12  C5'  DA D   8      40.456  38.794  22.719  1.00 13.06     0.187 C 
BRANCH  12  13
ATOM     13  O5'  DA D   8      39.251  39.472  22.978  1.00 11.03    -0.268 OA
BRANCH  13  14
ATOM     14  P    DA D   8      38.786  39.700  24.505  1.00 12.25     0.410 P 
ATOM     15  OP2  DA D   8      38.283  41.118  24.582  1.00 11.74    -0.624 OA
ATOM     16  OP1  DA D   8      39.852  39.264  25.421  1.00 15.55    -0.624 OA
BRANCH  14  17
ATOM     17  O3'  DC D   7      37.555  38.698  24.710  1.00 12.10    -0.271 OA
BRANCH  17  18
ATOM     18  C3'  DC D   7      37.291  37.696  23.708  1.00 11.74     0.161 C 
ATOM     19  C2'  DC D   7      37.425  36.265  24.227  1.00 11.76     0.087 C 
ATOM     20  C1'  DC D   7      36.476  35.482  23.314  1.00 12.42     0.211 C 
ATOM     21  O4'  DC D   7      35.523  36.424  22.833  1.00 12.34    -0.333 OA
ATOM     22  C4'  DC D   7      35.827  37.756  23.332  1.00 11.56     0.175 C 
BRANCH  20  23
ATOM     23  N1   DC D   7      37.241  35.009  22.136  1.00 11.09    -0.256 N 
ATOM     24  C2   DC D   7      36.875  33.776  21.593  1.00  9.80     0.353 A 
ATOM     25  O2   DC D   7      35.971  33.155  22.181  1.00 10.91    -0.244 OA
ATOM     26  N3   DC D   7      37.494  33.291  20.489  1.00  9.76    -0.171 NA
ATOM     27  C4   DC D   7      38.496  33.963  19.946  1.00 11.68     0.190 A 
ATOM     28  N4   DC D   7      39.105  33.444  18.842  1.00 10.83    -0.127 N 
ATOM     29  C5   DC D   7      38.932  35.234  20.494  1.00 10.32     0.060 A 
ATOM     30  C6   DC D   7      38.275  35.713  21.585  1.00 11.95     0.085 A 
ENDBRANCH  20  23
BRANCH  22  31
ATOM     31  C5'  DC D   7      35.476  38.775  22.284  1.00 14.18     0.187 C 
BRANCH  31  32
ATOM     32  O5'  DC D   7      35.484  40.072  22.894  1.00 16.43    -0.268 OA
BRANCH  32  33
ATOM     33  P    DC D   7      35.640  41.359  21.975  1.00 18.54     0.410 P 
ATOM     34  OP1  DC D   7      37.017  41.391  21.506  1.00 22.71    -0.624 OA
ATOM     35  OP2  DC D   7      34.510  41.350  21.050  1.00 19.79    -0.624 OA
BRANCH  33  36
ATOM     36  O3'  DC D   6      35.578  42.555  23.057  1.00 17.13    -0.271 OA
BRANCH  36  37
ATOM     37  C3'  DC D   6      34.709  42.475  24.163  1.00 14.94     0.161 C 
ATOM     38  C4'  DC D   6      33.415  43.179  23.772  1.00 15.77     0.175 C 
ATOM     39  O4'  DC D   6      33.558  44.522  24.269  1.00 13.81    -0.333 OA
ATOM     40  C1'  DC D   6      34.862  44.695  24.748  1.00 12.86     0.211 C 
ATOM     41  C2'  DC D   6      35.262  43.342  25.279  1.00 14.65     0.087 C 
BRANCH  38  42
ATOM     42  C5'  DC D   6      32.186  42.533  24.364  1.00 18.13     0.187 C 
BRANCH  42  43
ATOM     43  O5'  DC D   6      31.761  43.276  25.503  1.00 19.27    -0.268 OA
BRANCH  43  44
ATOM     44  P    DC D   6      31.711  42.584  26.949  1.00 19.84     0.410 P 
ATOM     45  OP1  DC D   6      32.703  43.334  27.762  1.00 24.35    -0.624 OA
ATOM     46  OP2  DC D   6      30.314  42.525  27.377  1.00 20.92    -0.624 OA
BRANCH  44  47
ATOM     47  O3'  DA D   5      32.329  41.148  26.645  1.00 19.93    -0.271 OA
BRANCH  47  48
ATOM     48  C3'  DA D   5      32.758  40.307  27.714  1.00 16.89     0.161 C 
ATOM     49  C4'  DA D   5      34.283  40.344  27.687  1.00 17.32     0.175 C 
ATOM     50  O4'  DA D   5      34.679  39.232  26.877  1.00 18.24    -0.333 OA
ATOM     51  C1'  DA D   5      33.528  38.444  26.521  1.00 15.77     0.210 C 
ATOM     52  C2'  DA D   5      32.421  38.836  27.478  1.00 16.34     0.087 C 
BRANCH  49  53
ATOM     53  C5'  DA D   5      34.953  40.349  29.043  1.00 17.61     0.187 C 
BRANCH  53  54
ATOM     54  O5'  DA D   5      33.966  40.237  30.065  1.00 19.33    -0.268 OA
BRANCH  54  55
ATOM     55  P    DA D   5      34.100  39.116  31.169  1.00 20.74     0.410 P 
ATOM     56  OP2  DA D   5      34.420  39.702  32.492  1.00 23.47    -0.624 OA
ATOM     57  OP1  DA D   5      34.971  38.044  30.586  1.00 23.99    -0.624 OA
BRANCH  55  58
ATOM     58  O3'  DT D   4      32.627  38.453  31.173  1.00 19.59    -0.271 OA
BRANCH  58  59
ATOM     59  C3'  DT D   4      32.415  37.092  30.742  1.00 18.10     0.161 C 
ATOM     60  C4'  DT D   4      30.908  36.894  30.508  1.00 15.82     0.175 C 
ATOM     61  O4'  DT D   4      30.412  36.163  31.645  1.00 16.38    -0.333 OA
ATOM     62  C1'  DT D   4      31.419  36.005  32.639  1.00 15.63     0.211 C 
ATOM     63  C2'  DT D   4      32.740  36.093  31.855  1.00 16.56     0.087 C 
BRANCH  60  64
ATOM     64  C5'  DT D   4      30.514  36.121  29.267  1.00 17.08     0.187 C 
BRANCH  64  65
ATOM     65  O5'  DT D   4      31.669  35.468  28.704  1.00 15.07    -0.268 OA
BRANCH  65  66
ATOM     66  P    DT D   4      31.734  33.874  28.652  1.00 15.11     0.410 P 
ATOM     67  OP1  DT D   4      31.337  33.415  27.262  1.00 18.00    -0.624 OA
ATOM     68  OP2  DT D   4      33.077  33.513  29.195  1.00 17.03    -0.624 OA
BRANCH  66  69
HETATM   69  O3' BRU D   3      30.546  33.453  29.578  1.00 15.24    -0.271 OA
BRANCH  69  70
HETATM   70  C3' BRU D   3      29.637  32.411  29.207  1.00 13.22     0.161 C 
HETATM   71  C4' BRU D   3      28.264  33.082  29.264  1.00 14.89     0.175 C 
HETATM   72  O4' BRU D   3      27.411  32.210  30.031  1.00 16.05    -0.333 OA
HETATM   73  C1' BRU D   3      28.244  31.551  30.980  1.00 15.34     0.211 C 
HETATM   74  C2' BRU D   3      29.512  31.226  30.176  1.00 12.90     0.087 C 
BRANCH  71  75
HETATM   75  C5' BRU D   3      27.607  33.505  27.976  1.00 17.61     0.187 C 
BRANCH  75  76
HETATM   76  O5' BRU D   3      26.998  32.408  27.323  1.00 15.66    -0.268 OA
BRANCH  76  77
HETATM   77  P   BRU D   3      27.424  32.121  25.810  1.00 16.77     0.410 P 
HETATM   78  OP1 BRU D   3      28.872  31.770  25.841  1.00 18.57    -0.624 OA
HETATM   79  OP2 BRU D   3      26.430  31.201  25.190  1.00 18.18    -0.624 OA
BRANCH  77  80
ATOM     80  O3'  DG D   2      27.306  33.534  25.086  1.00 17.32    -0.271 OA
BRANCH  80  81
ATOM     81  C3'  DG D   2      28.417  34.111  24.420  1.00 15.47     0.161 C 
ATOM     82  C2'  DG D   2      28.432  33.666  22.951  1.00 16.87     0.087 C 
ATOM     83  C1'  DG D   2      27.341  34.543  22.339  1.00 16.11     0.210 C 
ATOM     84  O4'  DG D   2      27.370  35.767  23.086  1.00 18.37    -0.333 OA
ATOM     85  C4'  DG D   2      28.078  35.600  24.334  1.00 18.34     0.175 C 
BRANCH  83  86
ATOM     86  N9   DG D   2      27.538  34.908  20.937  1.00 16.03    -0.272 N 
ATOM     87  C8   DG D   2      28.624  34.635  20.141  1.00 14.57     0.182 A 
ATOM     88  N7   DG D   2      28.550  35.182  18.950  1.00 16.34    -0.217 NA
ATOM     89  C5   DG D   2      27.318  35.859  18.968  1.00 13.99     0.175 A 
ATOM     90  C6   DG D   2      26.696  36.661  17.965  1.00 12.33     0.302 A 
ATOM     91  C4   DG D   2      26.668  35.665  20.174  1.00 12.94     0.172 A 
ATOM     92  O6   DG D   2      27.136  36.938  16.864  1.00 15.71    -0.263 OA
ATOM     93  N1   DG D   2      25.475  37.152  18.374  1.00 12.85    -0.174 NA
ATOM     94  C2   DG D   2      24.887  36.901  19.599  1.00 12.30     0.242 A 
ATOM     95  N2   DG D   2      23.636  37.454  19.826  1.00 15.13    -0.059 NA
ATOM     96  N3   DG D   2      25.463  36.138  20.563  1.00 14.89    -0.195 NA
ENDBRANCH  83  86
BRANCH  85  97
ATOM     97  C5'  DG D   2      29.252  36.548  24.403  1.00 20.11     0.187 C 
BRANCH  97  98
ATOM     98  O5'  DG D   2      28.841  37.824  24.880  1.00 21.44    -0.268 OA
BRANCH  98  99
ATOM     99  P    DG D   2      29.607  39.139  24.441  1.00 23.19     0.410 P 
ATOM    100  OP1  DG D   2      29.322  40.116  25.532  1.00 25.33    -0.624 OA
ATOM    101  OP2  DG D   2      30.994  38.890  24.019  1.00 23.21    -0.624 OA
BRANCH  99 102
ATOM    102  O3'  DC D   1      28.836  39.654  23.136  1.00 26.59    -0.271 OA
BRANCH 102 103
ATOM    103  C3'  DC D   1      29.399  39.374  21.861  1.00 27.88     0.161 C 
ATOM    104  C2'  DC D   1      28.276  38.922  20.949  1.00 26.06     0.087 C 
ATOM    105  C1'  DC D   1      27.622  40.251  20.651  1.00 24.51     0.211 C 
ATOM    106  O4'  DC D   1      28.702  41.189  20.525  1.00 29.50    -0.333 OA
ATOM    107  C4'  DC D   1      29.839  40.700  21.254  1.00 29.48     0.178 C 
BRANCH 105 108
ATOM    108  N1   DC D   1      26.818  40.363  19.428  1.00 21.38    -0.256 N 
ATOM    109  C6   DC D   1      27.387  40.287  18.185  1.00 19.62     0.085 A 
ATOM    110  C5   DC D   1      26.647  40.483  17.075  1.00 19.43     0.060 A 
ATOM    111  C4   DC D   1      25.250  40.724  17.256  1.00 17.00     0.190 A 
ATOM    112  N4   DC D   1      24.451  40.907  16.204  1.00 18.52    -0.127 N 
ATOM    113  N3   DC D   1      24.689  40.769  18.475  1.00 17.32    -0.171 NA
ATOM    114  C2   DC D   1      25.454  40.599  19.564  1.00 18.49     0.353 A 
ATOM    115  O2   DC D   1      24.968  40.656  20.698  1.00 18.51    -0.244 OA
ENDBRANCH 105 108
BRANCH 107 116
ATOM    116  C5'  DC D   1      31.056  40.636  20.357  1.00 31.78     0.214 C 
ATOM    117  O5'  DC D   1      31.811  39.451  20.624  1.00 34.90    -0.218 OA
ENDBRANCH 107 116
ENDBRANCH 102 103
ENDBRANCH  99 102
ENDBRANCH  98  99
ENDBRANCH  97  98
ENDBRANCH  85  97
ENDBRANCH  80  81
ENDBRANCH  77  80
ENDBRANCH  76  77
ENDBRANCH  75  76
ENDBRANCH  71  75
BRANCH  73 118
HETATM  118  N1  BRU D   3      27.524  30.368  31.459  1.00 13.25    -0.255 N 
HETATM  119  C2  BRU D   3      26.976  30.348  32.761  1.00 11.90     0.354 A 
HETATM  120  O2  BRU D   3      27.098  31.271  33.543  1.00 16.11    -0.244 OA
HETATM  121  N3  BRU D   3      26.296  29.220  33.099  1.00 12.15    -0.153 NA
HETATM  122  C4  BRU D   3      26.082  28.159  32.310  1.00 12.48     0.291 A 
HETATM  123  O4  BRU D   3      25.481  27.139  32.702  1.00 16.38    -0.264 OA
HETATM  124  C5  BRU D   3      26.702  28.289  31.036  1.00 14.67     0.110 A 
HETATM  125  C6  BRU D   3      27.376  29.343  30.676  1.00 13.17     0.094 A 
HETATM  126 BR   BRU D   3      26.546  26.665  29.706  1.00 24.07    -0.043 Br
ENDBRANCH  73 118
ENDBRANCH  69  70
ENDBRANCH  66  69
ENDBRANCH  65  66
ENDBRANCH  64  65
ENDBRANCH  60  64
BRANCH  62 127
ATOM    127  N1   DT D   4      31.108  34.732  33.351  1.00 13.98    -0.256 N 
ATOM    128  C2   DT D   4      30.323  34.785  34.469  1.00 13.56     0.354 A 
ATOM    129  O2   DT D   4      29.924  35.859  34.917  1.00 16.57    -0.244 OA
ATOM    130  N3   DT D   4      29.992  33.564  35.042  1.00 12.35    -0.153 NA
ATOM    131  C4   DT D   4      30.385  32.313  34.575  1.00 11.46     0.280 A 
ATOM    132  O4   DT D   4      29.993  31.269  35.122  1.00 13.76    -0.265 OA
ATOM    133  C5   DT D   4      31.269  32.351  33.426  1.00 12.51     0.053 A 
ATOM    134  C7   DT D   4      31.812  31.066  32.896  1.00 14.43     0.038 C 
ATOM    135  C6   DT D   4      31.575  33.525  32.871  1.00 14.14     0.083 A 
ENDBRANCH  62 127
ENDBRANCH  58  59
ENDBRANCH  55  58
ENDBRANCH  54  55
ENDBRANCH  53  54
ENDBRANCH  49  53
BRANCH  51 136
ATOM    136  N9   DA D   5      33.979  37.050  26.633  1.00 14.16    -0.272 N 
ATOM    137  C4   DA D   5      33.618  36.023  25.789  1.00 14.21     0.170 A 
ATOM    138  C5   DA D   5      34.437  34.958  26.135  1.00 12.40     0.155 A 
ATOM    139  N3   DA D   5      32.693  36.031  24.821  1.00 13.46    -0.205 NA
ATOM    140  C6   DA D   5      34.288  33.769  25.424  1.00 12.04     0.206 A 
ATOM    141  N7   DA D   5      35.254  35.305  27.180  1.00 14.47    -0.219 NA
ATOM    142  N6   DA D   5      35.030  32.674  25.686  1.00 12.46    -0.125 N 
ATOM    143  N1   DA D   5      33.360  33.731  24.439  1.00 13.98    -0.202 NA
ATOM    144  C2   DA D   5      32.646  34.849  24.201  1.00 14.25     0.202 A 
ATOM    145  C8   DA D   5      34.920  36.543  27.466  1.00 14.09     0.182 A 
ENDBRANCH  51 136
ENDBRANCH  47  48
ENDBRANCH  44  47
ENDBRANCH  43  44
ENDBRANCH  42  43
ENDBRANCH  38  42
BRANCH  40 146
ATOM    146  N1   DC D   6      34.869  45.835  25.710  1.00 11.89    -0.256 N 
ATOM    147  C2   DC D   6      36.080  46.529  25.881  1.00 11.45     0.353 A 
ATOM    148  O2   DC D   6      37.005  46.247  25.150  1.00 12.57    -0.244 OA
ATOM    149  N3   DC D   6      36.179  47.485  26.842  1.00 11.17    -0.171 NA
ATOM    150  C4   DC D   6      35.118  47.791  27.582  1.00 11.08     0.190 A 
ATOM    151  N4   DC D   6      35.233  48.725  28.541  1.00 10.70    -0.127 N 
ATOM    152  C5   DC D   6      33.847  47.134  27.381  1.00 10.83     0.060 A 
ATOM    153  C6   DC D   6      33.781  46.173  26.443  1.00 11.79     0.085 A 
ENDBRANCH  40 146
ENDBRANCH  36  37
ENDBRANCH  33  36
ENDBRANCH  32  33
ENDBRANCH  31  32
ENDBRANCH  22  31
ENDBRANCH  17  18
ENDBRANCH  14  17
ENDBRANCH  13  14
ENDBRANCH  12  13
ENDBRANCH   8  12
BRANCH  10 154
ATOM    154  N9   DA D   8      38.983  39.205  18.782  1.00 10.83    -0.272 N 
ATOM    155  C4   DA D   8      38.506  39.602  17.558  1.00  9.99     0.170 A 
ATOM    156  N3   DA D   8      39.230  40.081  16.510  1.00 10.21    -0.205 NA
ATOM    157  C5   DA D   8      37.148  39.374  17.596  1.00 10.31     0.155 A 
ATOM    158  C2   DA D   8      38.458  40.324  15.480  1.00 10.39     0.202 A 
ATOM    159  N1   DA D   8      37.120  40.163  15.373  1.00 11.14    -0.202 NA
ATOM    160  C6   DA D   8      36.436  39.644  16.418  1.00 10.09     0.206 A 
ATOM    161  N6   DA D   8      35.147  39.387  16.245  1.00 11.37    -0.125 N 
ATOM    162  N7   DA D   8      36.769  38.880  18.857  1.00 10.47    -0.219 NA
ATOM    163  C8   DA D   8      37.903  38.817  19.519  1.00 11.39     0.182 A 
ENDBRANCH  10 154
ENDBRANCH   6   7
ENDBRANCH   3   6
ENDBRANCH   2   3
ENDBRANCH   1   2
BRANCH   1 164
HETATM  164  C4' BRU D   9      42.934  44.966  24.503  1.00 14.07     0.175 C 
HETATM  165  O4' BRU D   9      43.817  46.124  24.408  1.00 13.32    -0.333 OA
HETATM  166  C1' BRU D   9      44.207  46.526  25.718  1.00 13.84     0.211 C 
HETATM  167  C2' BRU D   9      43.341  45.777  26.709  1.00 12.11     0.087 C 
HETATM  168  C3' BRU D   9      42.267  45.121  25.854  1.00 15.00     0.161 C 
BRANCH 166 169
HETATM  169  N1  BRU D   9      43.902  47.953  25.861  1.00 13.67    -0.255 N 
HETATM  170  C2  BRU D   9      44.810  48.745  26.467  1.00 11.22     0.354 A 
HETATM  171  O2  BRU D   9      45.835  48.288  26.922  1.00 13.50    -0.244 OA
HETATM  172  N3  BRU D   9      44.493  50.095  26.519  1.00 11.85    -0.153 NA
HETATM  173  C4  BRU D   9      43.376  50.641  26.027  1.00 10.30     0.291 A 
HETATM  174  O4  BRU D   9      43.211  51.890  26.025  1.00 12.93    -0.264 OA
HETATM  175  C5  BRU D   9      42.477  49.675  25.455  1.00 12.08     0.110 A 
HETATM  176  C6  BRU D   9      42.756  48.417  25.394  1.00 13.06     0.094 A 
HETATM  177 BR   BRU D   9      40.766  50.586  24.719  1.00 15.13    -0.043 Br
ENDBRANCH 166 169
BRANCH 168 178
HETATM  178  O3' BRU D   9      41.910  43.858  26.398  1.00 13.15    -0.271 OA
BRANCH 178 179
ATOM    179  P    DG D  10      40.445  43.685  26.968  1.00 14.52     0.410 P 
ATOM    180  OP2  DG D  10      40.283  44.271  28.340  1.00 14.92    -0.624 OA
ATOM    181  OP1  DG D  10      39.511  44.117  25.871  1.00 16.08    -0.624 OA
BRANCH 179 182
ATOM    182  O5'  DG D  10      40.285  42.094  27.187  1.00 14.63    -0.268 OA
BRANCH 182 183
ATOM    183  C5'  DG D  10      39.304  41.560  28.059  1.00 14.28     0.187 C 
BRANCH 183 184
ATOM    184  C4'  DG D  10      39.825  40.294  28.692  1.00 14.53     0.175 C 
ATOM    185  C3'  DG D  10      39.510  40.116  30.169  1.00 16.36     0.161 C 
ATOM    186  C2'  DG D  10      40.764  40.657  30.851  1.00 15.07     0.087 C 
ATOM    187  C1'  DG D  10      41.822  40.158  29.891  1.00 13.41     0.210 C 
ATOM    188  O4'  DG D  10      41.271  40.284  28.589  1.00 13.85    -0.333 OA
BRANCH 185 189
ATOM    189  O3'  DG D  10      39.364  38.703  30.328  1.00 20.48    -0.271 OA
BRANCH 189 190
ATOM    190  P    DG D  11      38.550  38.100  31.578  1.00 20.71     0.410 P 
ATOM    191  OP2  DG D  11      37.740  39.095  32.314  1.00 22.10    -0.624 OA
ATOM    192  OP1  DG D  11      37.938  36.835  31.093  1.00 24.32    -0.624 OA
BRANCH 190 193
ATOM    193  O5'  DG D  11      39.702  37.675  32.575  1.00 19.33    -0.268 OA
BRANCH 193 194
ATOM    194  C5'  DG D  11      40.694  36.751  32.144  1.00 18.66     0.187 C 
BRANCH 194 195
ATOM    195  C4'  DG D  11      40.881  35.699  33.207  1.00 18.71     0.175 C 
ATOM    196  C3'  DG D  11      40.699  34.289  32.684  1.00 19.69     0.161 C 
ATOM    197  C2'  DG D  11      39.227  34.019  32.942  1.00 18.26     0.087 C 
ATOM    198  C1'  DG D  11      39.040  34.720  34.282  1.00 15.98     0.210 C 
ATOM    199  O4'  DG D  11      39.944  35.812  34.303  1.00 17.85    -0.333 OA
BRANCH 196 200
ATOM    200  O3'  DG D  11      41.495  33.485  33.542  1.00 24.65    -0.271 OA
BRANCH 200 201
ATOM    201  P    DT D  12      42.753  32.756  32.965  1.00 28.19     0.410 P 
ATOM    202  OP2  DT D  12      43.253  33.321  31.691  1.00 27.85    -0.624 OA
ATOM    203  OP1  DT D  12      43.640  32.630  34.157  1.00 29.91    -0.624 OA
BRANCH 201 204
ATOM    204  O5'  DT D  12      42.209  31.330  32.544  1.00 28.66    -0.268 OA
BRANCH 204 205
ATOM    205  C5'  DT D  12      43.030  30.551  31.734  1.00 29.00     0.187 C 
BRANCH 205 206
ATOM    206  C4'  DT D  12      42.397  29.226  31.462  1.00 28.07     0.175 C 
ATOM    207  C3'  DT D  12      41.079  28.937  32.153  1.00 29.44     0.161 C 
ATOM    208  C2'  DT D  12      41.384  27.721  33.018  1.00 29.37     0.087 C 
ATOM    209  C1'  DT D  12      42.561  27.066  32.280  1.00 27.26     0.211 C 
ATOM    210  O4'  DT D  12      43.285  28.133  31.743  1.00 26.37    -0.333 OA
BRANCH 207 211
ATOM    211  O3'  DT D  12      40.273  28.639  31.043  1.00 31.26    -0.271 OA
BRANCH 211 212
ATOM    212  P    DA D  13      39.083  29.599  30.616  1.00 34.05     0.410 P 
ATOM    213  OP2  DA D  13      37.901  28.771  30.230  1.00 31.89    -0.624 OA
ATOM    214  OP1  DA D  13      38.999  30.538  31.744  1.00 33.32    -0.624 OA
BRANCH 212 215
ATOM    215  O5'  DA D  13      39.744  30.354  29.391  1.00 31.02    -0.268 OA
BRANCH 215 216
ATOM    216  C5'  DA D  13      39.953  31.764  29.450  1.00 27.53     0.187 C 
BRANCH 216 217
ATOM    217  C4'  DA D  13      38.916  32.469  28.611  1.00 25.33     0.175 C 
ATOM    218  O4'  DA D  13      37.705  31.679  28.505  1.00 22.92    -0.333 OA
ATOM    219  C1'  DA D  13      36.578  32.407  29.002  1.00 20.98     0.210 C 
ATOM    220  C2'  DA D  13      37.158  33.543  29.857  1.00 23.30     0.087 C 
ATOM    221  C3'  DA D  13      38.482  33.832  29.165  1.00 26.45     0.161 C 
BRANCH 219 222
ATOM    222  N9   DA D  13      35.762  31.451  29.737  1.00 17.31    -0.272 N 
ATOM    223  C8   DA D  13      35.589  31.391  31.076  1.00 17.58     0.182 A 
ATOM    224  N7   DA D  13      34.903  30.356  31.484  1.00 17.72    -0.219 NA
ATOM    225  C5   DA D  13      34.558  29.708  30.327  1.00 14.33     0.155 A 
ATOM    226  C6   DA D  13      33.814  28.547  30.062  1.00 14.45     0.206 A 
ATOM    227  C4   DA D  13      35.073  30.380  29.223  1.00 15.76     0.170 A 
ATOM    228  N6   DA D  13      33.269  27.741  31.018  1.00 15.52    -0.125 N 
ATOM    229  N1   DA D  13      33.646  28.217  28.781  1.00 14.59    -0.202 NA
ATOM    230  C2   DA D  13      34.216  28.956  27.820  1.00 15.74     0.202 A 
ATOM    231  N3   DA D  13      34.963  30.043  27.940  1.00 15.60    -0.205 NA
ENDBRANCH 219 222
BRANCH 221 232
ATOM    232  O3'  DA D  13      38.271  34.712  28.080  1.00 30.43    -0.271 OA
BRANCH 232 233
ATOM    233  P    DA D  14      39.347  35.849  27.783  1.00 32.07     0.410 P 
ATOM    234  OP2  DA D  14      38.646  37.097  27.522  1.00 33.16    -0.624 OA
ATOM    235  OP1  DA D  14      40.340  35.755  28.886  1.00 33.96    -0.624 OA
BRANCH 233 236
ATOM    236  O5'  DA D  14      40.043  35.320  26.478  1.00 31.87    -0.268 OA
BRANCH 236 237
ATOM    237  C5'  DA D  14      40.880  36.201  25.749  1.00 30.81     0.187 C 
BRANCH 237 238
ATOM    238  C4'  DA D  14      42.168  35.498  25.415  1.00 31.39     0.175 C 
ATOM    239  O4'  DA D  14      42.256  34.252  26.153  1.00 30.66    -0.333 OA
ATOM    240  C1'  DA D  14      42.521  33.210  25.232  1.00 28.20     0.210 C 
ATOM    241  C2'  DA D  14      41.877  33.651  23.932  1.00 29.16     0.087 C 
ATOM    242  C3'  DA D  14      42.272  35.115  23.942  1.00 31.09     0.161 C 
BRANCH 240 243
ATOM    243  N9   DA D  14      42.037  31.967  25.796  1.00 24.41    -0.272 N 
ATOM    244  C4   DA D  14      42.791  31.218  26.656  1.00 21.62     0.170 A 
ATOM    245  N3   DA D  14      44.014  31.535  27.139  1.00 18.94    -0.205 NA
ATOM    246  C5   DA D  14      42.068  30.078  26.881  1.00 22.12     0.155 A 
ATOM    247  C2   DA D  14      44.490  30.520  27.891  1.00 18.83     0.202 A 
ATOM    248  N1   DA D  14      43.893  29.385  28.187  1.00 18.79    -0.202 NA
ATOM    249  C6   DA D  14      42.644  29.135  27.698  1.00 19.52     0.206 A 
ATOM    250  N6   DA D  14      42.024  28.019  28.026  1.00 21.07    -0.125 N 
ATOM    251  N7   DA D  14      40.850  30.112  26.200  1.00 24.53    -0.219 NA
ATOM    252  C8   DA D  14      40.875  31.273  25.593  1.00 24.70     0.182 A 
ENDBRANCH 240 243
BRANCH 242 253
ATOM    253  O3'  DA D  14      43.635  35.257  23.608  1.00 31.14    -0.271 OA
BRANCH 253 254
ATOM    254  P    DC D  15      44.063  35.752  22.141  1.00 30.59     0.410 P 
ATOM    255  OP1  DC D  15      42.801  36.183  21.474  1.00 31.75    -0.624 OA
ATOM    256  OP2  DC D  15      44.990  34.796  21.460  1.00 29.87    -0.624 OA
BRANCH 254 257
ATOM    257  O5'  DC D  15      44.855  37.083  22.548  1.00 30.76    -0.268 OA
BRANCH 257 258
ATOM    258  C5'  DC D  15      44.897  38.210  21.631  1.00 28.28     0.187 C 
BRANCH 258 259
ATOM    259  C4'  DC D  15      44.513  39.502  22.327  1.00 28.15     0.175 C 
ATOM    260  O4'  DC D  15      44.103  39.268  23.694  1.00 23.18    -0.333 OA
ATOM    261  C1'  DC D  15      44.894  40.037  24.601  1.00 22.58     0.211 C 
ATOM    262  C2'  DC D  15      46.110  40.498  23.814  1.00 24.52     0.087 C 
ATOM    263  C3'  DC D  15      45.591  40.575  22.391  1.00 28.37     0.161 C 
BRANCH 261 264
ATOM    264  N1   DC D  15      45.263  39.156  25.711  1.00 18.64    -0.256 N 
ATOM    265  C6   DC D  15      45.231  37.796  25.561  1.00 16.47     0.085 A 
ATOM    266  C5   DC D  15      45.484  36.981  26.581  1.00 15.01     0.060 A 
ATOM    267  C4   DC D  15      45.777  37.596  27.855  1.00 13.33     0.190 A 
ATOM    268  N3   DC D  15      45.889  38.916  27.980  1.00 13.89    -0.171 NA
ATOM    269  N4   DC D  15      45.919  36.844  28.930  1.00 15.28    -0.127 N 
ATOM    270  C2   DC D  15      45.632  39.724  26.949  1.00 18.12     0.353 A 
ATOM    271  O2   DC D  15      45.683  40.972  27.040  1.00 20.47    -0.244 OA
ENDBRANCH 261 264
BRANCH 263 272
ATOM    272  O3'  DC D  15      45.013  41.855  22.182  1.00 31.34    -0.271 OA
BRANCH 272 273
ATOM    273  P    DG D  16      45.464  42.706  20.923  1.00 32.78     0.410 P 
ATOM    274  OP1  DG D  16      46.483  41.900  20.189  1.00 34.59    -0.624 OA
ATOM    275  OP2  DG D  16      45.806  44.063  21.417  1.00 31.45    -0.624 OA
BRANCH 273 276
ATOM    276  O5'  DG D  16      44.135  42.810  20.067  1.00 31.83    -0.268 OA
BRANCH 276 277
ATOM    277  C5'  DG D  16      44.066  43.659  18.932  1.00 31.48     0.187 C 
BRANCH 277 278
ATOM    278  C4'  DG D  16      42.748  43.451  18.231  1.00 29.56     0.178 C 
ATOM    279  C3'  DG D  16      42.667  44.058  16.824  1.00 29.50     0.186 C 
ATOM    280  C2'  DG D  16      41.858  45.327  17.050  1.00 28.21     0.090 C 
ATOM    281  O3'  DG D  16      41.881  43.180  15.986  1.00 31.52    -0.221 OA
ATOM    282  C1'  DG D  16      40.896  44.839  18.099  1.00 24.75     0.210 C 
ATOM    283  O4'  DG D  16      41.688  44.079  18.984  1.00 27.49    -0.333 OA
BRANCH 282 284
ATOM    284  N9   DG D  16      40.232  45.870  18.878  1.00 21.33    -0.271 N 
ATOM    285  C4   DG D  16      40.853  46.781  19.682  1.00 19.88     0.188 A 
ATOM    286  N3   DG D  16      42.198  46.902  19.859  1.00 18.33    -0.038 NA
ATOM    287  C5   DG D  16      39.838  47.513  20.253  1.00 17.85     0.176 A 
ATOM    288  C2   DG D  16      42.502  47.852  20.696  1.00 15.82     0.773 A 
ATOM    289  N1   DG D  16      41.548  48.627  21.345  1.00 16.33    -0.016 NA
ATOM    290  N2   DG D  16      43.815  48.139  20.963  1.00 16.23     0.062 N 
ATOM    291  C6   DG D  16      40.171  48.526  21.174  1.00 15.94     0.316 A 
ATOM    292  O6   DG D  16      39.415  49.297  21.826  1.00 18.70    -0.263 OA
ATOM    293  N7   DG D  16      38.603  47.097  19.768  1.00 18.48    -0.217 NA
ATOM    294  C8   DG D  16      38.888  46.112  18.964  1.00 19.50     0.182 A 
ENDBRANCH 282 284
ENDBRANCH 277 278
ENDBRANCH 276 277
ENDBRANCH 273 276
ENDBRANCH 272 273
ENDBRANCH 263 272
ENDBRANCH 258 259
ENDBRANCH 257 258
ENDBRANCH 254 257
ENDBRANCH 253 254
ENDBRANCH 242 253
ENDBRANCH 237 238
ENDBRANCH 236 237
ENDBRANCH 233 236
ENDBRANCH 232 233
ENDBRANCH 221 232
ENDBRANCH 216 217
ENDBRANCH 215 216
ENDBRANCH 212 215
ENDBRANCH 211 212
ENDBRANCH 207 211
BRANCH 209 295
ATOM    295  N1   DT D  12      43.520  26.310  33.094  1.00 25.54    -0.256 N 
ATOM    296  C6   DT D  12      44.427  26.952  33.912  1.00 22.97     0.083 A 
ATOM    297  C5   DT D  12      45.374  26.308  34.623  1.00 22.23     0.053 A 
ATOM    298  C4   DT D  12      45.432  24.877  34.523  1.00 20.03     0.280 A 
ATOM    299  C7   DT D  12      46.359  26.987  35.518  1.00 23.27     0.038 C 
ATOM    300  O4   DT D  12      46.275  24.200  35.107  1.00 18.53    -0.265 OA
ATOM    301  N3   DT D  12      44.465  24.284  33.709  1.00 19.51    -0.153 NA
ATOM    302  C2   DT D  12      43.503  24.927  32.979  1.00 22.25     0.354 A 
ATOM    303  O2   DT D  12      42.693  24.334  32.276  1.00 24.24    -0.244 OA
ENDBRANCH 209 295
ENDBRANCH 205 206
ENDBRANCH 204 205
ENDBRANCH 201 204
ENDBRANCH 200 201
ENDBRANCH 196 200
BRANCH 198 304
ATOM    304  N9   DG D  11      37.713  35.277  34.523  1.00 15.12    -0.271 N 
ATOM    305  C8   DG D  11      37.379  36.602  34.678  1.00 13.13     0.182 A 
ATOM    306  N7   DG D  11      36.123  36.780  34.993  1.00 13.46    -0.217 NA
ATOM    307  C5   DG D  11      35.597  35.495  35.052  1.00 11.37     0.176 A 
ATOM    308  C6   DG D  11      34.297  35.076  35.382  1.00 10.16     0.316 A 
ATOM    309  C4   DG D  11      36.549  34.555  34.737  1.00 12.33     0.188 A 
ATOM    310  O6   DG D  11      33.369  35.763  35.750  1.00 10.86    -0.263 OA
ATOM    311  N1   DG D  11      34.165  33.684  35.266  1.00 10.07    -0.016 NA
ATOM    312  C2   DG D  11      35.191  32.811  34.914  1.00 11.41     0.773 A 
ATOM    313  N2   DG D  11      34.890  31.482  34.807  1.00 10.83     0.062 N 
ATOM    314  N3   DG D  11      36.426  33.210  34.665  1.00 11.83    -0.038 NA
ENDBRANCH 198 304
ENDBRANCH 194 195
ENDBRANCH 193 194
ENDBRANCH 190 193
ENDBRANCH 189 190
ENDBRANCH 185 189
BRANCH 187 315
ATOM    315  N9   DG D  10      43.042  40.950  29.951  1.00 11.23    -0.271 N 
ATOM    316  C8   DG D  10      43.248  42.227  29.462  1.00 12.20     0.182 A 
ATOM    317  N7   DG D  10      44.446  42.691  29.751  1.00 12.66    -0.217 NA
ATOM    318  C5   DG D  10      45.060  41.647  30.433  1.00 10.47     0.176 A 
ATOM    319  C4   DG D  10      44.212  40.570  30.557  1.00 10.52     0.188 A 
ATOM    320  C6   DG D  10      46.392  41.533  30.990  1.00 11.39     0.316 A 
ATOM    321  N3   DG D  10      44.452  39.380  31.141  1.00 10.98    -0.038 NA
ATOM    322  C2   DG D  10      45.661  39.322  31.687  1.00  8.78     0.773 A 
ATOM    323  N1   DG D  10      46.590  40.325  31.614  1.00  9.45    -0.016 NA
ATOM    324  N2   DG D  10      46.037  38.249  32.375  1.00 10.60     0.062 N 
ATOM    325  O6   DG D  10      47.336  42.357  30.950  1.00 10.46    -0.263 OA
ENDBRANCH 187 315
ENDBRANCH 183 184
ENDBRANCH 182 183
ENDBRANCH 179 182
ENDBRANCH 178 179
ENDBRANCH 168 178
ENDBRANCH   1 164
TORSDOF 92
ENDMDL
MODEL 8
REMARK VINA RESULT:      -0.1      3.636     12.726
REMARK WARNING: 32 MAX_TORS EXCEEDED!!!
REMARK  92 active torsions:
REMARK  status: ('A' for Active; 'I' for Inactive)
REMARK    1  A    between atoms: C5'_1  and  C4'_3 
REMARK    2  A    between atoms: C3'_5  and  O3'_6 
REMARK    3  A    between atoms: O3'_6  and  P_17 
REMARK    4  A    between atoms: C1'_8  and  N1_9 
REMARK    5  A    between atoms: P_17  and  O5'_19 
REMARK    6  A    between atoms: C5'_18  and  O5'_19 
REMARK    7  A    between atoms: C5'_18  and  C4'_20 
REMARK    8  A    between atoms: C3'_22  and  O3'_23 
REMARK    9  A    between atoms: O3'_23  and  P_39 
REMARK   10  A    between atoms: C1'_25  and  N9_36 
REMARK   11  A    between atoms: P_39  and  O5'_41 
REMARK   12  A    between atoms: C5'_40  and  O5'_41 
REMARK   13  A    between atoms: C5'_40  and  C4'_42 
REMARK   14  A    between atoms: C3'_44  and  O3'_45 
REMARK   15  A    between atoms: O3'_45  and  P_59 
REMARK   16  A    between atoms: C1'_47  and  N1_48 
REMARK   17  A    between atoms: P_59  and  O5'_61 
REMARK   18  A    between atoms: C5'_60  and  C4'_62 
REMARK   19  A    between atoms: C5'_60  and  O5'_61 
REMARK   20  A    between atoms: C3'_64  and  O3'_65 
REMARK   21  A    between atoms: O3'_65  and  P_79 
REMARK   22  A    between atoms: C1'_67  and  N1_68 
REMARK   23  A    between atoms: P_79  and  O5'_81 
REMARK   24  A    between atoms: C5'_80  and  C4'_82 
REMARK   25  A    between atoms: C5'_80  and  O5'_81 
REMARK   26  A    between atoms: C3'_84  and  O3'_85 
REMARK   27  A    between atoms: O3'_85  and  P_100 
REMARK   28  A    between atoms: C1'_87  and  N9_97 
REMARK   29  A    between atoms: P_100  and  O5'_102 
REMARK   30  A    between atoms: C5'_101  and  C4'_103 
REMARK   31  A    between atoms: C5'_101  and  O5'_102 
REMARK   32  A    between atoms: C3'_105  and  O3'_106 
REMARK   33  A    between atoms: O3'_106  and  P_119 
REMARK   34  A    between atoms: C1'_108  and  N1_109 
REMARK   35  A    between atoms: P_119  and  O5'_121 
REMARK   36  A    between atoms: C5'_120  and  O5'_121 
REMARK   37  A    between atoms: C5'_120  and  C4'_122 
REMARK   38  A    between atoms: C3'_124  and  O3'_125 
REMARK   39  A    between atoms: O3'_125  and  P_138 
REMARK   40  A    between atoms: C1'_127  and  N1_128 
REMARK   41  A    between atoms: P_138  and  O5'_140 
REMARK   42  A    between atoms: C5'_139  and  C4'_141 
REMARK   43  A    between atoms: C5'_139  and  O5'_140 
REMARK   44  A    between atoms: C3'_143  and  O3'_144 
REMARK   45  A    between atoms: O3'_144  and  P_159 
REMARK   46  A    between atoms: C1'_146  and  N9_156 
REMARK   47  A    between atoms: P_159  and  O5'_161 
REMARK   48  A    between atoms: C5'_160  and  O5'_161 
REMARK   49  A    between atoms: C5'_160  and  C4'_162 
REMARK   50  A    between atoms: C3'_164  and  O3'_165 
REMARK   51  A    between atoms: O3'_165  and  P_179 
REMARK   52  A    between atoms: C1'_167  and  N1_168 
REMARK   53  A    between atoms: P_179  and  O5'_181 
REMARK   54  A    between atoms: C5'_180  and  C4'_182 
REMARK   55  A    between atoms: C5'_180  and  O5'_181 
REMARK   56  A    between atoms: C3'_184  and  O3'_185 
REMARK   57  A    between atoms: O3'_185  and  P_201 
REMARK   58  A    between atoms: C1'_187  and  N9_198 
REMARK   59  A    between atoms: P_201  and  O5'_203 
REMARK   60  A    between atoms: C5'_202  and  O5'_203 
REMARK   61  A    between atoms: C5'_202  and  C4'_204 
REMARK   62  A    between atoms: C3'_206  and  O3'_207 
REMARK   63  A    between atoms: O3'_207  and  P_223 
REMARK   64  A    between atoms: C1'_209  and  N9_220 
REMARK   65  A    between atoms: P_223  and  O5'_225 
REMARK   66  A    between atoms: C5'_224  and  O5'_225 
REMARK   67  A    between atoms: C5'_224  and  C4'_226 
REMARK   68  A    between atoms: C3'_228  and  O3'_229 
REMARK   69  A    between atoms: O3'_229  and  P_243 
REMARK   70  A    between atoms: C1'_231  and  N1_232 
REMARK   71  A    between atoms: P_243  and  O5'_245 
REMARK   72  A    between atoms: C5'_244  and  C4'_246 
REMARK   73  A    between atoms: C5'_244  and  O5'_245 
REMARK   74  A    between atoms: C3'_248  and  O3'_249 
REMARK   75  A    between atoms: O3'_249  and  P_264 
REMARK   76  A    between atoms: C1'_251  and  N9_261 
REMARK   77  A    between atoms: P_264  and  O5'_266 
REMARK   78  A    between atoms: C5'_265  and  C4'_267 
REMARK   79  A    between atoms: C5'_265  and  O5'_266 
REMARK   80  A    between atoms: C3'_269  and  O3'_270 
REMARK   81  A    between atoms: O3'_270  and  P_285 
REMARK   82  A    between atoms: C1'_272  and  N9_282 
REMARK   83  A    between atoms: P_285  and  O5'_287 
REMARK   84  A    between atoms: C5'_286  and  O5'_287 
REMARK   85  A    between atoms: C5'_286  and  C4'_288 
REMARK   86  A    between atoms: C3'_290  and  O3'_291 
REMARK   87  A    between atoms: O3'_291  and  P_304 
REMARK   88  A    between atoms: C1'_293  and  N1_294 
REMARK   89  A    between atoms: P_304  and  O5'_306 
REMARK   90  A    between atoms: C5'_305  and  C4'_307 
REMARK   91  A    between atoms: C5'_305  and  O5'_306 
REMARK   92  A    between atoms: C1'_312  and  N9_323 
ROOT
HETATM    1  C5' BRU D   9      42.016  40.189  19.130  1.00 14.48     0.187 C 
ENDROOT
BRANCH   1   2
HETATM    2  O5' BRU D   9      42.142  38.858  18.668  1.00 12.82    -0.268 OA
BRANCH   2   3
HETATM    3  P   BRU D   9      41.103  37.754  19.119  1.00 11.11     0.410 P 
HETATM    4  OP1 BRU D   9      41.810  36.662  19.886  1.00 14.53    -0.624 OA
HETATM    5  OP2 BRU D   9      40.011  38.521  19.775  1.00 12.75    -0.624 OA
BRANCH   3   6
ATOM      6  O3'  DA D   8      40.702  37.055  17.755  1.00 11.43    -0.271 OA
BRANCH   6   7
ATOM      7  C3'  DA D   8      39.373  36.605  17.583  1.00 10.57     0.161 C 
ATOM      8  C4'  DA D   8      39.378  35.092  17.394  1.00 11.52     0.175 C 
ATOM      9  O4'  DA D   8      38.232  34.805  16.575  1.00 11.40    -0.333 OA
ATOM     10  C1'  DA D   8      37.839  35.981  15.847  1.00 11.23     0.210 C 
ATOM     11  C2'  DA D   8      38.778  37.106  16.276  1.00 12.23     0.087 C 
BRANCH   8  12
ATOM     12  C5'  DA D   8      39.295  34.271  18.656  1.00 13.06     0.187 C 
BRANCH  12  13
ATOM     13  O5'  DA D   8      37.994  34.321  19.187  1.00 11.03    -0.268 OA
BRANCH  13  14
ATOM     14  P    DA D   8      37.732  35.128  20.558  1.00 12.25     0.410 P 
ATOM     15  OP2  DA D   8      36.824  36.276  20.200  1.00 11.74    -0.624 OA
ATOM     16  OP1  DA D   8      39.012  35.405  21.227  1.00 15.55    -0.624 OA
BRANCH  14  17
ATOM     17  O3'  DC D   7      36.930  34.101  21.489  1.00 12.10    -0.271 OA
BRANCH  17  18
ATOM     18  C3'  DC D   7      37.113  32.685  21.290  1.00 11.74     0.161 C 
ATOM     19  C2'  DC D   7      38.203  32.082  22.174  1.00 11.76     0.087 C 
ATOM     20  C1'  DC D   7      37.752  30.626  22.325  1.00 12.42     0.211 C 
ATOM     21  O4'  DC D   7      36.345  30.624  22.109  1.00 12.34    -0.333 OA
ATOM     22  C4'  DC D   7      35.878  31.962  21.781  1.00 11.56     0.175 C 
BRANCH  20  23
ATOM     23  N1   DC D   7      38.354  29.831  21.228  1.00 11.09    -0.256 N 
ATOM     24  C2   DC D   7      39.448  29.027  21.552  1.00  9.80     0.353 A 
ATOM     25  O2   DC D   7      39.857  29.090  22.726  1.00 10.91    -0.244 OA
ATOM     26  N3   DC D   7      40.031  28.235  20.619  1.00  9.76    -0.171 NA
ATOM     27  C4   DC D   7      39.596  28.261  19.369  1.00 11.68     0.190 A 
ATOM     28  N4   DC D   7      40.209  27.461  18.451  1.00 10.83    -0.127 N 
ATOM     29  C5   DC D   7      38.481  29.104  18.978  1.00 10.32     0.060 A 
ATOM     30  C6   DC D   7      37.895  29.867  19.941  1.00 11.95     0.085 A 
ENDBRANCH  20  23
BRANCH  22  31
ATOM     31  C5'  DC D   7      34.752  31.870  20.789  1.00 14.18     0.187 C 
BRANCH  31  32
ATOM     32  O5'  DC D   7      33.738  32.811  21.166  1.00 16.43    -0.268 OA
BRANCH  32  33
ATOM     33  P    DC D   7      33.458  34.063  20.231  1.00 18.54     0.410 P 
ATOM     34  OP1  DC D   7      34.445  34.035  19.162  1.00 22.71    -0.624 OA
ATOM     35  OP2  DC D   7      32.023  34.066  19.957  1.00 19.79    -0.624 OA
BRANCH  33  36
ATOM     36  O3'  DC D   6      33.938  35.292  21.161  1.00 17.13    -0.271 OA
BRANCH  36  37
ATOM     37  C3'  DC D   6      33.233  35.617  22.337  1.00 14.94     0.161 C 
ATOM     38  C4'  DC D   6      32.679  37.026  22.156  1.00 15.77     0.175 C 
ATOM     39  O4'  DC D   6      33.652  37.890  22.770  1.00 13.81    -0.333 OA
ATOM     40  C1'  DC D   6      34.774  37.133  23.127  1.00 12.86     0.211 C 
ATOM     41  C2'  DC D   6      34.229  35.771  23.472  1.00 14.65     0.087 C 
BRANCH  38  42
ATOM     42  C5'  DC D   6      31.329  37.219  22.802  1.00 18.13     0.187 C 
BRANCH  42  43
ATOM     43  O5'  DC D   6      31.393  38.309  23.716  1.00 19.27    -0.268 OA
BRANCH  43  44
ATOM     44  P    DC D   6      30.978  38.105  25.252  1.00 19.84     0.410 P 
ATOM     45  OP1  DC D   6      31.522  39.296  25.954  1.00 24.35    -0.624 OA
ATOM     46  OP2  DC D   6      29.544  37.822  25.302  1.00 20.92    -0.624 OA
BRANCH  44  47
ATOM     47  O3'  DA D   5      31.872  36.854  25.667  1.00 19.93    -0.271 OA
BRANCH  47  48
ATOM     48  C3'  DA D   5      31.676  36.213  26.926  1.00 16.89     0.161 C 
ATOM     49  C4'  DA D   5      33.023  36.275  27.640  1.00 17.32     0.175 C 
ATOM     50  O4'  DA D   5      33.687  35.050  27.311  1.00 18.24    -0.333 OA
ATOM     51  C1'  DA D   5      32.802  34.192  26.568  1.00 15.77     0.210 C 
ATOM     52  C2'  DA D   5      31.399  34.718  26.790  1.00 16.34     0.087 C 
BRANCH  49  53
ATOM     53  C5'  DA D   5      32.954  36.521  29.131  1.00 17.61     0.187 C 
BRANCH  53  54
ATOM     54  O5'  DA D   5      34.265  36.760  29.637  1.00 19.33    -0.268 OA
BRANCH  54  55
ATOM     55  P    DA D   5      34.497  37.876  30.730  1.00 20.74     0.410 P 
ATOM     56  OP2  DA D   5      35.377  37.388  31.817  1.00 23.47    -0.624 OA
ATOM     57  OP1  DA D   5      33.148  38.449  31.047  1.00 23.99    -0.624 OA
BRANCH  55  58
ATOM     58  O3'  DT D   4      35.221  39.046  29.884  1.00 19.59    -0.271 OA
BRANCH  58  59
ATOM     59  C3'  DT D   4      34.963  40.440  30.156  1.00 18.10     0.161 C 
ATOM     60  C4'  DT D   4      35.066  41.213  28.831  1.00 15.82     0.175 C 
ATOM     61  O4'  DT D   4      36.340  41.884  28.848  1.00 16.38    -0.333 OA
ATOM     62  C1'  DT D   4      37.112  41.499  29.982  1.00 15.63     0.211 C 
ATOM     63  C2'  DT D   4      36.065  41.058  31.019  1.00 16.56     0.087 C 
BRANCH  60  64
ATOM     64  C5'  DT D   4      34.005  42.264  28.579  1.00 17.08     0.187 C 
BRANCH  64  65
ATOM     65  O5'  DT D   4      32.786  41.910  29.263  1.00 15.07    -0.268 OA
BRANCH  65  66
ATOM     66  P    DT D   4      31.879  43.052  29.912  1.00 15.11     0.410 P 
ATOM     67  OP1  DT D   4      30.506  43.007  29.267  1.00 18.00    -0.624 OA
ATOM     68  OP2  DT D   4      32.009  42.871  31.388  1.00 17.03    -0.624 OA
BRANCH  66  69
HETATM   69  O3' BRU D   3      32.542  44.362  29.375  1.00 15.24    -0.271 OA
BRANCH  69  70
HETATM   70  C3' BRU D   3      31.763  45.515  29.039  1.00 13.22     0.161 C 
HETATM   71  C4' BRU D   3      32.685  46.331  28.133  1.00 14.89     0.175 C 
HETATM   72  O4' BRU D   3      32.669  47.681  28.638  1.00 16.05    -0.333 OA
HETATM   73  C1' BRU D   3      32.472  47.591  30.044  1.00 15.34     0.211 C 
HETATM   74  C2' BRU D   3      31.423  46.478  30.187  1.00 12.90     0.087 C 
BRANCH  71  75
HETATM   75  C5' BRU D   3      32.459  46.295  26.644  1.00 17.61     0.187 C 
BRANCH  75  76
HETATM   76  O5' BRU D   3      31.578  45.251  26.281  1.00 15.66    -0.268 OA
BRANCH  76  77
HETATM   77  P   BRU D   3      32.155  44.089  25.348  1.00 16.77     0.410 P 
HETATM   78  OP1 BRU D   3      31.702  42.803  25.952  1.00 18.57    -0.624 OA
HETATM   79  OP2 BRU D   3      31.853  44.411  23.926  1.00 18.18    -0.624 OA
BRANCH  77  80
ATOM     80  O3'  DG D   2      33.733  44.162  25.546  1.00 17.32    -0.271 OA
BRANCH  80  81
ATOM     81  C3'  DG D   2      34.620  43.766  24.513  1.00 15.47     0.161 C 
ATOM     82  C2'  DG D   2      35.958  44.503  24.664  1.00 16.87     0.087 C 
ATOM     83  C1'  DG D   2      36.616  43.740  25.812  1.00 16.11     0.210 C 
ATOM     84  O4'  DG D   2      36.147  42.391  25.693  1.00 18.37    -0.333 OA
ATOM     85  C4'  DG D   2      34.976  42.317  24.851  1.00 18.34     0.175 C 
BRANCH  83  86
ATOM     86  N9   DG D   2      38.077  43.677  25.771  1.00 16.03    -0.272 N 
ATOM     87  C8   DG D   2      38.862  42.669  25.265  1.00 14.57     0.182 A 
ATOM     88  N7   DG D   2      40.145  42.857  25.464  1.00 16.34    -0.217 NA
ATOM     89  C5   DG D   2      40.204  44.085  26.145  1.00 13.99     0.175 A 
ATOM     90  C6   DG D   2      41.328  44.803  26.652  1.00 12.33     0.302 A 
ATOM     91  C4   DG D   2      38.936  44.618  26.306  1.00 12.94     0.172 A 
ATOM     92  O6   DG D   2      42.498  44.469  26.604  1.00 15.71    -0.263 OA
ATOM     93  N1   DG D   2      40.961  45.982  27.262  1.00 12.85    -0.174 NA
ATOM     94  C2   DG D   2      39.666  46.452  27.372  1.00 12.30     0.242 A 
ATOM     95  N2   DG D   2      39.488  47.679  27.992  1.00 15.13    -0.059 NA
ATOM     96  N3   DG D   2      38.585  45.784  26.893  1.00 14.89    -0.195 NA
ENDBRANCH  83  86
BRANCH  85  97
ATOM     97  C5'  DG D   2      35.232  41.410  23.672  1.00 20.11     0.187 C 
BRANCH  97  98
ATOM     98  O5'  DG D   2      35.393  42.168  22.478  1.00 21.44    -0.268 OA
BRANCH  98  99
ATOM     99  P    DG D   2      36.231  41.598  21.262  1.00 23.19     0.410 P 
ATOM    100  OP1  DG D   2      37.402  40.929  21.899  1.00 25.33    -0.624 OA
ATOM    101  OP2  DG D   2      35.411  40.872  20.281  1.00 23.21    -0.624 OA
BRANCH  99 102
ATOM    102  O3'  DC D   1      36.788  42.890  20.498  1.00 26.59    -0.271 OA
BRANCH 102 103
ATOM    103  C3'  DC D   1      37.073  42.787  19.109  1.00 27.88     0.161 C 
ATOM    104  C2'  DC D   1      36.963  44.174  18.509  1.00 26.06     0.087 C 
ATOM    105  C1'  DC D   1      38.262  44.778  18.990  1.00 24.51     0.211 C 
ATOM    106  O4'  DC D   1      39.230  43.721  18.904  1.00 29.50    -0.333 OA
ATOM    107  C4'  DC D   1      38.553  42.455  18.969  1.00 29.48     0.178 C 
BRANCH 105 108
ATOM    108  N1   DC D   1      38.809  45.917  18.243  1.00 21.38    -0.256 N 
ATOM    109  C6   DC D   1      39.492  46.924  18.870  1.00 19.62     0.085 A 
ATOM    110  C5   DC D   1      39.908  48.007  18.183  1.00 19.43     0.060 A 
ATOM    111  C4   DC D   1      39.645  48.028  16.777  1.00 17.00     0.190 A 
ATOM    112  N4   DC D   1      40.045  49.057  16.028  1.00 18.52    -0.127 N 
ATOM    113  N3   DC D   1      39.001  47.025  16.161  1.00 17.32    -0.171 NA
ATOM    114  C2   DC D   1      38.573  45.974  16.874  1.00 18.49     0.353 A 
ATOM    115  O2   DC D   1      37.959  45.046  16.335  1.00 18.51    -0.244 OA
ENDBRANCH 105 108
BRANCH 107 116
ATOM    116  C5'  DC D   1      38.920  41.596  17.779  1.00 31.78     0.214 C 
ATOM    117  O5'  DC D   1      37.872  40.667  17.491  1.00 34.90    -0.218 OA
ENDBRANCH 107 116
ENDBRANCH 102 103
ENDBRANCH  99 102
ENDBRANCH  98  99
ENDBRANCH  97  98
ENDBRANCH  85  97
ENDBRANCH  80  81
ENDBRANCH  77  80
ENDBRANCH  76  77
ENDBRANCH  75  76
ENDBRANCH  71  75
BRANCH  73 118
HETATM  118  N1  BRU D   3      32.016  48.902  30.515  1.00 13.25    -0.255 N 
HETATM  119  C2  BRU D   3      32.870  49.717  31.289  1.00 11.90     0.354 A 
HETATM  120  O2  BRU D   3      33.987  49.371  31.626  1.00 16.11    -0.244 OA
HETATM  121  N3  BRU D   3      32.368  50.929  31.647  1.00 12.15    -0.153 NA
HETATM  122  C4  BRU D   3      31.167  51.418  31.311  1.00 12.48     0.291 A 
HETATM  123  O4  BRU D   3      30.756  52.526  31.709  1.00 16.38    -0.264 OA
HETATM  124  C5  BRU D   3      30.393  50.496  30.553  1.00 14.67     0.110 A 
HETATM  125  C6  BRU D   3      30.826  49.320  30.203  1.00 13.17     0.094 A 
HETATM  126 BR   BRU D   3      28.438  51.070  30.025  1.00 24.07    -0.043 Br
ENDBRANCH  73 118
ENDBRANCH  69  70
ENDBRANCH  66  69
ENDBRANCH  65  66
ENDBRANCH  64  65
ENDBRANCH  60  64
BRANCH  62 127
ATOM    127  N1   DT D   4      37.980  42.666  30.312  1.00 13.98    -0.256 N 
ATOM    128  C2   DT D   4      39.161  42.811  29.638  1.00 13.56     0.354 A 
ATOM    129  O2   DT D   4      39.534  41.975  28.818  1.00 16.57    -0.244 OA
ATOM    130  N3   DT D   4      39.888  43.961  29.922  1.00 12.35    -0.153 NA
ATOM    131  C4   DT D   4      39.516  44.960  30.816  1.00 11.46     0.280 A 
ATOM    132  O4   DT D   4      40.204  45.982  30.962  1.00 13.76    -0.265 OA
ATOM    133  C5   DT D   4      38.284  44.694  31.535  1.00 12.51     0.053 A 
ATOM    134  C7   DT D   4      37.837  45.666  32.575  1.00 14.43     0.038 C 
ATOM    135  C6   DT D   4      37.582  43.595  31.251  1.00 14.14     0.083 A 
ENDBRANCH  62 127
ENDBRANCH  58  59
ENDBRANCH  55  58
ENDBRANCH  54  55
ENDBRANCH  53  54
ENDBRANCH  49  53
BRANCH  51 136
ATOM    136  N9   DA D   5      33.050  32.845  27.102  1.00 14.16    -0.272 N 
ATOM    137  C4   DA D   5      34.085  32.015  26.728  1.00 14.21     0.170 A 
ATOM    138  C5   DA D   5      34.054  30.962  27.630  1.00 12.40     0.155 A 
ATOM    139  N3   DA D   5      34.958  32.179  25.727  1.00 13.46    -0.205 NA
ATOM    140  C6   DA D   5      35.012  29.960  27.488  1.00 12.04     0.206 A 
ATOM    141  N7   DA D   5      33.016  31.118  28.512  1.00 14.47    -0.219 NA
ATOM    142  N6   DA D   5      35.065  28.891  28.307  1.00 12.46    -0.125 N 
ATOM    143  N1   DA D   5      35.913  30.081  26.484  1.00 13.98    -0.202 NA
ATOM    144  C2   DA D   5      35.833  31.170  25.693  1.00 14.25     0.202 A 
ATOM    145  C8   DA D   5      32.426  32.230  28.135  1.00 14.09     0.182 A 
ENDBRANCH  51 136
ENDBRANCH  47  48
ENDBRANCH  44  47
ENDBRANCH  43  44
ENDBRANCH  42  43
ENDBRANCH  38  42
BRANCH  40 146
ATOM    146  N1   DC D   6      35.520  37.860  24.194  1.00 11.89    -0.256 N 
ATOM    147  C2   DC D   6      36.890  38.092  23.982  1.00 11.45     0.353 A 
ATOM    148  O2   DC D   6      37.355  37.806  22.899  1.00 12.57    -0.244 OA
ATOM    149  N3   DC D   6      37.646  38.628  24.977  1.00 11.17    -0.171 NA
ATOM    150  C4   DC D   6      37.075  38.973  26.127  1.00 11.08     0.190 A 
ATOM    151  N4   DC D   6      37.835  39.483  27.111  1.00 10.70    -0.127 N 
ATOM    152  C5   DC D   6      35.657  38.800  26.344  1.00 10.83     0.060 A 
ATOM    153  C6   DC D   6      34.936  38.244  25.354  1.00 11.79     0.085 A 
ENDBRANCH  40 146
ENDBRANCH  36  37
ENDBRANCH  33  36
ENDBRANCH  32  33
ENDBRANCH  31  32
ENDBRANCH  22  31
ENDBRANCH  17  18
ENDBRANCH  14  17
ENDBRANCH  13  14
ENDBRANCH  12  13
ENDBRANCH   8  12
BRANCH  10 154
ATOM    154  N9   DA D   8      36.472  36.300  16.259  1.00 10.83    -0.272 N 
ATOM    155  C4   DA D   8      35.369  35.584  15.865  1.00  9.99     0.170 A 
ATOM    156  N3   DA D   8      35.343  34.501  15.043  1.00 10.21    -0.205 NA
ATOM    157  C5   DA D   8      34.300  36.163  16.511  1.00 10.31     0.155 A 
ATOM    158  C2   DA D   8      34.124  34.039  14.914  1.00 10.39     0.202 A 
ATOM    159  N1   DA D   8      32.983  34.505  15.471  1.00 11.14    -0.202 NA
ATOM    160  C6   DA D   8      33.049  35.557  16.319  1.00 10.09     0.206 A 
ATOM    161  N6   DA D   8      31.937  35.917  16.942  1.00 11.37    -0.125 N 
ATOM    162  N7   DA D   8      34.724  37.268  17.270  1.00 10.47    -0.219 NA
ATOM    163  C8   DA D   8      36.023  37.304  17.065  1.00 11.39     0.182 A 
ENDBRANCH  10 154
ENDBRANCH   6   7
ENDBRANCH   3   6
ENDBRANCH   2   3
ENDBRANCH   1   2
BRANCH   1 164
HETATM  164  C4' BRU D   9      42.989  40.447  20.258  1.00 14.07     0.175 C 
HETATM  165  O4' BRU D   9      43.584  41.767  20.080  1.00 13.32    -0.333 OA
HETATM  166  C1' BRU D   9      43.960  42.289  21.351  1.00 13.84     0.211 C 
HETATM  167  C2' BRU D   9      43.349  41.402  22.415  1.00 12.11     0.087 C 
HETATM  168  C3' BRU D   9      42.394  40.498  21.651  1.00 15.00     0.161 C 
BRANCH 166 169
HETATM  169  N1  BRU D   9      43.356  43.618  21.489  1.00 13.67    -0.255 N 
HETATM  170  C2  BRU D   9      44.115  44.699  21.214  1.00 11.22     0.354 A 
HETATM  171  O2  BRU D   9      45.279  44.584  20.902  1.00 13.50    -0.244 OA
HETATM  172  N3  BRU D   9      43.472  45.926  21.304  1.00 11.85    -0.153 NA
HETATM  173  C4  BRU D   9      42.189  46.097  21.640  1.00 10.30     0.291 A 
HETATM  174  O4  BRU D   9      41.655  47.237  21.599  1.00 12.93    -0.264 OA
HETATM  175  C5  BRU D   9      41.515  44.866  21.954  1.00 12.08     0.110 A 
HETATM  176  C6  BRU D   9      42.095  43.716  21.873  1.00 13.06     0.094 A 
HETATM  177 BR   BRU D   9      39.537  45.204  22.474  1.00 15.13    -0.043 Br
ENDBRANCH 166 169
BRANCH 168 178
HETATM  178  O3' BRU D   9      42.362  39.206  22.242  1.00 13.15    -0.271 OA
BRANCH 178 179
ATOM    179  P    DG D  10      41.258  38.919  23.336  1.00 14.52     0.410 P 
ATOM    180  OP2  DG D  10      40.269  40.040  23.471  1.00 14.92    -0.624 OA
ATOM    181  OP1  DG D  10      40.756  37.525  23.076  1.00 16.08    -0.624 OA
BRANCH 179 182
ATOM    182  O5'  DG D  10      42.066  38.925  24.733  1.00 14.63    -0.268 OA
BRANCH 182 183
ATOM    183  C5'  DG D  10      41.525  39.517  25.902  1.00 14.28     0.187 C 
BRANCH 183 184
ATOM    184  C4'  DG D  10      41.126  38.437  26.877  1.00 14.53     0.175 C 
ATOM    185  C3'  DG D  10      41.359  38.756  28.346  1.00 16.36     0.161 C 
ATOM    186  C2'  DG D  10      42.723  38.126  28.617  1.00 15.07     0.087 C 
ATOM    187  C1'  DG D  10      42.607  36.875  27.775  1.00 13.41     0.210 C 
ATOM    188  O4'  DG D  10      41.906  37.247  26.599  1.00 13.85    -0.333 OA
BRANCH 185 189
ATOM    189  O3'  DG D  10      40.298  38.080  29.024  1.00 20.48    -0.271 OA
BRANCH 189 190
ATOM    190  P    DG D  11      39.864  38.521  30.509  1.00 20.71     0.410 P 
ATOM    191  OP2  DG D  11      40.477  39.785  30.973  1.00 22.10    -0.624 OA
ATOM    192  OP1  DG D  11      38.392  38.323  30.579  1.00 24.32    -0.624 OA
BRANCH 190 193
ATOM    193  O5'  DG D  11      40.501  37.389  31.412  1.00 19.33    -0.268 OA
BRANCH 193 194
ATOM    194  C5'  DG D  11      39.887  36.106  31.460  1.00 18.66     0.187 C 
BRANCH 194 195
ATOM    195  C4'  DG D  11      40.475  35.324  32.607  1.00 18.71     0.175 C 
ATOM    196  C3'  DG D  11      40.250  33.831  32.482  1.00 19.69     0.161 C 
ATOM    197  C2'  DG D  11      38.955  33.618  33.246  1.00 18.26     0.087 C 
ATOM    198  C1'  DG D  11      39.137  34.603  34.395  1.00 15.98     0.210 C 
ATOM    199  O4'  DG D  11      39.916  35.677  33.894  1.00 17.85    -0.333 OA
BRANCH 196 200
ATOM    200  O3'  DG D  11      41.332  33.248  33.192  1.00 24.65    -0.271 OA
BRANCH 200 201
ATOM    201  P    DT D  12      42.527  32.625  32.398  1.00 28.19     0.410 P 
ATOM    202  OP2  DT D  12      42.671  33.137  31.016  1.00 27.85    -0.624 OA
ATOM    203  OP1  DT D  12      43.652  32.706  33.374  1.00 29.91    -0.624 OA
BRANCH 201 204
ATOM    204  O5'  DT D  12      42.103  31.115  32.187  1.00 28.66    -0.268 OA
BRANCH 204 205
ATOM    205  C5'  DT D  12      42.835  30.373  31.265  1.00 29.00     0.187 C 
BRANCH 205 206
ATOM    206  C4'  DT D  12      42.223  29.024  31.071  1.00 28.07     0.175 C 
ATOM    207  C3'  DT D  12      40.889  28.769  31.744  1.00 29.44     0.161 C 
ATOM    208  C2'  DT D  12      41.182  27.622  32.702  1.00 29.37     0.087 C 
ATOM    209  C1'  DT D  12      42.386  26.930  32.047  1.00 27.26     0.211 C 
ATOM    210  O4'  DT D  12      43.114  27.966  31.456  1.00 26.37    -0.333 OA
BRANCH 207 211
ATOM    211  O3'  DT D  12      40.119  28.382  30.637  1.00 31.26    -0.271 OA
BRANCH 211 212
ATOM    212  P    DA D  13      38.702  29.042  30.355  1.00 34.05     0.410 P 
ATOM    213  OP2  DA D  13      37.844  28.064  29.622  1.00 31.89    -0.624 OA
ATOM    214  OP1  DA D  13      38.304  29.538  31.680  1.00 33.32    -0.624 OA
BRANCH 212 215
ATOM    215  O5'  DA D  13      39.131  30.284  29.471  1.00 31.02    -0.268 OA
BRANCH 215 216
ATOM    216  C5'  DA D  13      38.871  31.610  29.928  1.00 27.53     0.187 C 
BRANCH 216 217
ATOM    217  C4'  DA D  13      37.607  32.131  29.289  1.00 25.33     0.175 C 
ATOM    218  O4'  DA D  13      36.440  31.766  30.067  1.00 22.92    -0.333 OA
ATOM    219  C1'  DA D  13      35.714  32.930  30.472  1.00 20.98     0.210 C 
ATOM    220  C2'  DA D  13      36.689  34.106  30.315  1.00 23.30     0.087 C 
ATOM    221  C3'  DA D  13      37.559  33.658  29.149  1.00 26.45     0.161 C 
BRANCH 219 222
ATOM    222  N9   DA D  13      35.274  32.687  31.839  1.00 17.31    -0.272 N 
ATOM    223  C8   DA D  13      35.681  31.692  32.658  1.00 17.58     0.182 A 
ATOM    224  N7   DA D  13      35.033  31.631  33.792  1.00 17.72    -0.219 NA
ATOM    225  C5   DA D  13      34.166  32.690  33.738  1.00 14.33     0.155 A 
ATOM    226  C6   DA D  13      33.208  33.193  34.633  1.00 14.45     0.206 A 
ATOM    227  C4   DA D  13      34.307  33.371  32.533  1.00 15.76     0.170 A 
ATOM    228  N6   DA D  13      32.907  32.633  35.839  1.00 15.52    -0.125 N 
ATOM    229  N1   DA D  13      32.549  34.289  34.258  1.00 14.59    -0.202 NA
ATOM    230  C2   DA D  13      32.782  34.831  33.055  1.00 15.74     0.202 A 
ATOM    231  N3   DA D  13      33.626  34.435  32.115  1.00 15.60    -0.205 NA
ENDBRANCH 219 222
BRANCH 221 232
ATOM    232  O3'  DA D  13      36.923  33.978  27.929  1.00 30.43    -0.271 OA
BRANCH 232 233
ATOM    233  P    DA D  14      37.662  34.944  26.899  1.00 32.07     0.410 P 
ATOM    234  OP2  DA D  14      36.807  35.130  25.738  1.00 33.16    -0.624 OA
ATOM    235  OP1  DA D  14      38.112  36.112  27.703  1.00 33.96    -0.624 OA
BRANCH 233 236
ATOM    236  O5'  DA D  14      38.941  34.116  26.519  1.00 31.87    -0.268 OA
BRANCH 236 237
ATOM    237  C5'  DA D  14      39.869  34.677  25.607  1.00 30.81     0.187 C 
BRANCH 237 238
ATOM    238  C4'  DA D  14      41.165  33.917  25.688  1.00 31.39     0.175 C 
ATOM    239  O4'  DA D  14      40.978  32.702  26.458  1.00 30.66    -0.333 OA
ATOM    240  C1'  DA D  14      41.454  31.613  25.690  1.00 28.20     0.210 C 
ATOM    241  C2'  DA D  14      41.238  32.018  24.245  1.00 29.16     0.087 C 
ATOM    242  C3'  DA D  14      41.678  33.467  24.324  1.00 31.09     0.161 C 
BRANCH 240 243
ATOM    243  N9   DA D  14      40.771  30.412  26.126  1.00 24.41    -0.272 N 
ATOM    244  C4   DA D  14      41.430  29.385  26.741  1.00 21.62     0.170 A 
ATOM    245  N3   DA D  14      42.739  29.357  27.079  1.00 18.94    -0.205 NA
ATOM    246  C5   DA D  14      40.500  28.393  26.897  1.00 22.12     0.155 A 
ATOM    247  C2   DA D  14      43.058  28.150  27.591  1.00 18.83     0.202 A 
ATOM    248  N1   DA D  14      42.259  27.124  27.798  1.00 18.79    -0.202 NA
ATOM    249  C6   DA D  14      40.939  27.222  27.469  1.00 19.52     0.206 A 
ATOM    250  N6   DA D  14      40.126  26.214  27.713  1.00 21.07    -0.125 N 
ATOM    251  N7   DA D  14      39.252  28.792  26.418  1.00 24.53    -0.219 NA
ATOM    252  C8   DA D  14      39.468  30.015  25.995  1.00 24.70     0.182 A 
ENDBRANCH 240 243
BRANCH 242 253
ATOM    253  O3'  DA D  14      43.084  33.548  24.400  1.00 31.14    -0.271 OA
BRANCH 253 254
ATOM    254  P    DC D  15      43.953  33.840  23.081  1.00 30.59     0.410 P 
ATOM    255  OP1  DC D  15      45.064  34.734  23.518  1.00 31.75    -0.624 OA
ATOM    256  OP2  DC D  15      43.106  34.207  21.905  1.00 29.87    -0.624 OA
BRANCH 254 257
ATOM    257  O5'  DC D  15      44.581  32.382  22.868  1.00 30.76    -0.268 OA
BRANCH 257 258
ATOM    258  C5'  DC D  15      44.860  31.539  24.018  1.00 28.28     0.187 C 
BRANCH 258 259
ATOM    259  C4'  DC D  15      44.655  30.072  23.689  1.00 28.15     0.175 C 
ATOM    260  O4'  DC D  15      43.491  29.873  22.854  1.00 23.18    -0.333 OA
ATOM    261  C1'  DC D  15      43.842  29.193  21.648  1.00 22.58     0.211 C 
ATOM    262  C2'  DC D  15      45.354  29.294  21.531  1.00 24.52     0.087 C 
ATOM    263  C3'  DC D  15      45.805  29.378  22.976  1.00 28.37     0.161 C 
BRANCH 261 264
ATOM    264  N1   DC D  15      43.162  29.881  20.548  1.00 18.64    -0.256 N 
ATOM    265  C6   DC D  15      42.369  30.970  20.791  1.00 16.47     0.085 A 
ATOM    266  C5   DC D  15      41.681  31.557  19.816  1.00 15.01     0.060 A 
ATOM    267  C4   DC D  15      41.796  30.982  18.495  1.00 13.33     0.190 A 
ATOM    268  N3   DC D  15      42.629  29.976  18.245  1.00 13.89    -0.171 NA
ATOM    269  N4   DC D  15      41.046  31.444  17.512  1.00 15.28    -0.127 N 
ATOM    270  C2   DC D  15      43.315  29.395  19.231  1.00 18.12     0.353 A 
ATOM    271  O2   DC D  15      44.074  28.417  19.042  1.00 20.47    -0.244 OA
ENDBRANCH 261 264
BRANCH 263 272
ATOM    272  O3'  DC D  15      45.966  28.062  23.485  1.00 31.34    -0.271 OA
BRANCH 272 273
ATOM    273  P    DG D  16      47.221  27.738  24.399  1.00 32.78     0.410 P 
ATOM    274  OP1  DG D  16      48.277  28.738  24.068  1.00 34.59    -0.624 OA
ATOM    275  OP2  DG D  16      47.500  26.287  24.253  1.00 31.45    -0.624 OA
BRANCH 273 276
ATOM    276  O5'  DG D  16      46.671  27.991  25.863  1.00 31.83    -0.268 OA
BRANCH 276 277
ATOM    277  C5'  DG D  16      46.539  26.921  26.784  1.00 31.48     0.187 C 
BRANCH 277 278
ATOM    278  C4'  DG D  16      47.331  27.230  28.029  1.00 29.56     0.178 C 
ATOM    279  C3'  DG D  16      46.754  26.638  29.321  1.00 29.50     0.186 C 
ATOM    280  C2'  DG D  16      46.079  27.838  29.971  1.00 28.21     0.090 C 
ATOM    281  O3'  DG D  16      47.849  26.236  30.175  1.00 31.52    -0.221 OA
ATOM    282  C1'  DG D  16      47.052  28.921  29.590  1.00 24.75     0.210 C 
ATOM    283  O4'  DG D  16      47.370  28.658  28.242  1.00 27.49    -0.333 OA
BRANCH 282 284
ATOM    284  N9   DG D  16      46.547  30.280  29.666  1.00 21.33    -0.271 N 
ATOM    285  C4   DG D  16      46.898  31.208  30.604  1.00 19.88     0.188 A 
ATOM    286  N3   DG D  16      47.811  31.028  31.599  1.00 18.33    -0.038 NA
ATOM    287  C5   DG D  16      46.139  32.319  30.319  1.00 17.85     0.176 A 
ATOM    288  C2   DG D  16      47.933  32.083  32.352  1.00 15.82     0.773 A 
ATOM    289  N1   DG D  16      47.190  33.242  32.163  1.00 16.33    -0.016 NA
ATOM    290  N2   DG D  16      48.838  32.091  33.382  1.00 16.23     0.062 N 
ATOM    291  C6   DG D  16      46.260  33.450  31.150  1.00 15.94     0.316 A 
ATOM    292  O6   DG D  16      45.655  34.556  31.092  1.00 18.70    -0.263 OA
ATOM    293  N7   DG D  16      45.363  32.103  29.186  1.00 18.48    -0.217 NA
ATOM    294  C8   DG D  16      45.631  30.875  28.842  1.00 19.50     0.182 A 
ENDBRANCH 282 284
ENDBRANCH 277 278
ENDBRANCH 276 277
ENDBRANCH 273 276
ENDBRANCH 272 273
ENDBRANCH 263 272
ENDBRANCH 258 259
ENDBRANCH 257 258
ENDBRANCH 254 257
ENDBRANCH 253 254
ENDBRANCH 242 253
ENDBRANCH 237 238
ENDBRANCH 236 237
ENDBRANCH 233 236
ENDBRANCH 232 233
ENDBRANCH 221 232
ENDBRANCH 216 217
ENDBRANCH 215 216
ENDBRANCH 212 215
ENDBRANCH 211 212
ENDBRANCH 207 211
BRANCH 209 295
ATOM    295  N1   DT D  12      43.329  26.247  32.940  1.00 25.54    -0.256 N 
ATOM    296  C6   DT D  12      44.149  26.956  33.794  1.00 22.97     0.083 A 
ATOM    297  C5   DT D  12      45.081  26.381  34.579  1.00 22.23     0.053 A 
ATOM    298  C4   DT D  12      45.218  24.953  34.525  1.00 20.03     0.280 A 
ATOM    299  C7   DT D  12      45.972  27.134  35.513  1.00 23.27     0.038 C 
ATOM    300  O4   DT D  12      46.055  24.337  35.179  1.00 18.53    -0.265 OA
ATOM    301  N3   DT D  12      44.335  24.290  33.671  1.00 19.51    -0.153 NA
ATOM    302  C2   DT D  12      43.389  24.863  32.864  1.00 22.25     0.354 A 
ATOM    303  O2   DT D  12      42.656  24.210  32.130  1.00 24.24    -0.244 OA
ENDBRANCH 209 295
ENDBRANCH 205 206
ENDBRANCH 204 205
ENDBRANCH 201 204
ENDBRANCH 200 201
ENDBRANCH 196 200
BRANCH 198 304
ATOM    304  N9   DG D  11      37.911  35.193  34.922  1.00 15.12    -0.271 N 
ATOM    305  C8   DG D  11      36.874  34.543  35.548  1.00 13.13     0.182 A 
ATOM    306  N7   DG D  11      35.861  35.327  35.809  1.00 13.46    -0.217 NA
ATOM    307  C5   DG D  11      36.253  36.570  35.322  1.00 11.37     0.176 A 
ATOM    308  C6   DG D  11      35.546  37.783  35.299  1.00 10.16     0.316 A 
ATOM    309  C4   DG D  11      37.523  36.519  34.800  1.00 12.33     0.188 A 
ATOM    310  O6   DG D  11      34.403  37.982  35.649  1.00 10.86    -0.263 OA
ATOM    311  N1   DG D  11      36.329  38.820  34.769  1.00 10.07    -0.016 NA
ATOM    312  C2   DG D  11      37.626  38.672  34.283  1.00 11.41     0.773 A 
ATOM    313  N2   DG D  11      38.270  39.791  33.834  1.00 10.83     0.062 N 
ATOM    314  N3   DG D  11      38.259  37.513  34.253  1.00 11.83    -0.038 NA
ENDBRANCH 198 304
ENDBRANCH 194 195
ENDBRANCH 193 194
ENDBRANCH 190 193
ENDBRANCH 189 190
ENDBRANCH 185 189
BRANCH 187 315
ATOM    315  N9   DG D  10      43.907  36.347  27.385  1.00 11.23    -0.271 N 
ATOM    316  C8   DG D  10      44.361  35.045  27.494  1.00 12.20     0.182 A 
ATOM    317  N7   DG D  10      45.559  34.882  26.973  1.00 12.66    -0.217 NA
ATOM    318  C5   DG D  10      45.915  36.153  26.535  1.00 10.47     0.176 A 
ATOM    319  C4   DG D  10      44.913  37.062  26.788  1.00 10.52     0.188 A 
ATOM    320  C6   DG D  10      47.124  36.630  25.898  1.00 11.39     0.316 A 
ATOM    321  N3   DG D  10      44.896  38.382  26.519  1.00 10.98    -0.038 NA
ATOM    322  C2   DG D  10      45.995  38.782  25.889  1.00  8.78     0.773 A 
ATOM    323  N1   DG D  10      47.058  37.970  25.600  1.00  9.45    -0.016 NA
ATOM    324  N2   DG D  10      46.112  40.040  25.477  1.00 10.60     0.062 N 
ATOM    325  O6   DG D  10      48.172  35.999  25.622  1.00 10.46    -0.263 OA
ENDBRANCH 187 315
ENDBRANCH 183 184
ENDBRANCH 182 183
ENDBRANCH 179 182
ENDBRANCH 178 179
ENDBRANCH 168 178
ENDBRANCH   1 164
TORSDOF 92
ENDMDL
MODEL 9
REMARK VINA RESULT:      -0.1      3.565     14.345
REMARK WARNING: 32 MAX_TORS EXCEEDED!!!
REMARK  92 active torsions:
REMARK  status: ('A' for Active; 'I' for Inactive)
REMARK    1  A    between atoms: C5'_1  and  C4'_3 
REMARK    2  A    between atoms: C3'_5  and  O3'_6 
REMARK    3  A    between atoms: O3'_6  and  P_17 
REMARK    4  A    between atoms: C1'_8  and  N1_9 
REMARK    5  A    between atoms: P_17  and  O5'_19 
REMARK    6  A    between atoms: C5'_18  and  O5'_19 
REMARK    7  A    between atoms: C5'_18  and  C4'_20 
REMARK    8  A    between atoms: C3'_22  and  O3'_23 
REMARK    9  A    between atoms: O3'_23  and  P_39 
REMARK   10  A    between atoms: C1'_25  and  N9_36 
REMARK   11  A    between atoms: P_39  and  O5'_41 
REMARK   12  A    between atoms: C5'_40  and  O5'_41 
REMARK   13  A    between atoms: C5'_40  and  C4'_42 
REMARK   14  A    between atoms: C3'_44  and  O3'_45 
REMARK   15  A    between atoms: O3'_45  and  P_59 
REMARK   16  A    between atoms: C1'_47  and  N1_48 
REMARK   17  A    between atoms: P_59  and  O5'_61 
REMARK   18  A    between atoms: C5'_60  and  C4'_62 
REMARK   19  A    between atoms: C5'_60  and  O5'_61 
REMARK   20  A    between atoms: C3'_64  and  O3'_65 
REMARK   21  A    between atoms: O3'_65  and  P_79 
REMARK   22  A    between atoms: C1'_67  and  N1_68 
REMARK   23  A    between atoms: P_79  and  O5'_81 
REMARK   24  A    between atoms: C5'_80  and  C4'_82 
REMARK   25  A    between atoms: C5'_80  and  O5'_81 
REMARK   26  A    between atoms: C3'_84  and  O3'_85 
REMARK   27  A    between atoms: O3'_85  and  P_100 
REMARK   28  A    between atoms: C1'_87  and  N9_97 
REMARK   29  A    between atoms: P_100  and  O5'_102 
REMARK   30  A    between atoms: C5'_101  and  C4'_103 
REMARK   31  A    between atoms: C5'_101  and  O5'_102 
REMARK   32  A    between atoms: C3'_105  and  O3'_106 
REMARK   33  A    between atoms: O3'_106  and  P_119 
REMARK   34  A    between atoms: C1'_108  and  N1_109 
REMARK   35  A    between atoms: P_119  and  O5'_121 
REMARK   36  A    between atoms: C5'_120  and  O5'_121 
REMARK   37  A    between atoms: C5'_120  and  C4'_122 
REMARK   38  A    between atoms: C3'_124  and  O3'_125 
REMARK   39  A    between atoms: O3'_125  and  P_138 
REMARK   40  A    between atoms: C1'_127  and  N1_128 
REMARK   41  A    between atoms: P_138  and  O5'_140 
REMARK   42  A    between atoms: C5'_139  and  C4'_141 
REMARK   43  A    between atoms: C5'_139  and  O5'_140 
REMARK   44  A    between atoms: C3'_143  and  O3'_144 
REMARK   45  A    between atoms: O3'_144  and  P_159 
REMARK   46  A    between atoms: C1'_146  and  N9_156 
REMARK   47  A    between atoms: P_159  and  O5'_161 
REMARK   48  A    between atoms: C5'_160  and  O5'_161 
REMARK   49  A    between atoms: C5'_160  and  C4'_162 
REMARK   50  A    between atoms: C3'_164  and  O3'_165 
REMARK   51  A    between atoms: O3'_165  and  P_179 
REMARK   52  A    between atoms: C1'_167  and  N1_168 
REMARK   53  A    between atoms: P_179  and  O5'_181 
REMARK   54  A    between atoms: C5'_180  and  C4'_182 
REMARK   55  A    between atoms: C5'_180  and  O5'_181 
REMARK   56  A    between atoms: C3'_184  and  O3'_185 
REMARK   57  A    between atoms: O3'_185  and  P_201 
REMARK   58  A    between atoms: C1'_187  and  N9_198 
REMARK   59  A    between atoms: P_201  and  O5'_203 
REMARK   60  A    between atoms: C5'_202  and  O5'_203 
REMARK   61  A    between atoms: C5'_202  and  C4'_204 
REMARK   62  A    between atoms: C3'_206  and  O3'_207 
REMARK   63  A    between atoms: O3'_207  and  P_223 
REMARK   64  A    between atoms: C1'_209  and  N9_220 
REMARK   65  A    between atoms: P_223  and  O5'_225 
REMARK   66  A    between atoms: C5'_224  and  O5'_225 
REMARK   67  A    between atoms: C5'_224  and  C4'_226 
REMARK   68  A    between atoms: C3'_228  and  O3'_229 
REMARK   69  A    between atoms: O3'_229  and  P_243 
REMARK   70  A    between atoms: C1'_231  and  N1_232 
REMARK   71  A    between atoms: P_243  and  O5'_245 
REMARK   72  A    between atoms: C5'_244  and  C4'_246 
REMARK   73  A    between atoms: C5'_244  and  O5'_245 
REMARK   74  A    between atoms: C3'_248  and  O3'_249 
REMARK   75  A    between atoms: O3'_249  and  P_264 
REMARK   76  A    between atoms: C1'_251  and  N9_261 
REMARK   77  A    between atoms: P_264  and  O5'_266 
REMARK   78  A    between atoms: C5'_265  and  C4'_267 
REMARK   79  A    between atoms: C5'_265  and  O5'_266 
REMARK   80  A    between atoms: C3'_269  and  O3'_270 
REMARK   81  A    between atoms: O3'_270  and  P_285 
REMARK   82  A    between atoms: C1'_272  and  N9_282 
REMARK   83  A    between atoms: P_285  and  O5'_287 
REMARK   84  A    between atoms: C5'_286  and  O5'_287 
REMARK   85  A    between atoms: C5'_286  and  C4'_288 
REMARK   86  A    between atoms: C3'_290  and  O3'_291 
REMARK   87  A    between atoms: O3'_291  and  P_304 
REMARK   88  A    between atoms: C1'_293  and  N1_294 
REMARK   89  A    between atoms: P_304  and  O5'_306 
REMARK   90  A    between atoms: C5'_305  and  C4'_307 
REMARK   91  A    between atoms: C5'_305  and  O5'_306 
REMARK   92  A    between atoms: C1'_312  and  N9_323 
ROOT
HETATM    1  C5' BRU D   9      39.602  42.265  19.891  1.00 14.48     0.187 C 
ENDROOT
BRANCH   1   2
HETATM    2  O5' BRU D   9      40.631  41.515  19.274  1.00 12.82    -0.268 OA
BRANCH   2   3
HETATM    3  P   BRU D   9      40.457  40.989  17.792  1.00 11.11     0.410 P 
HETATM    4  OP1 BRU D   9      41.266  39.730  17.593  1.00 14.53    -0.624 OA
HETATM    5  OP2 BRU D   9      38.985  40.955  17.583  1.00 12.75    -0.624 OA
BRANCH   3   6
ATOM      6  O3'  DA D   8      41.230  42.071  16.931  1.00 11.43    -0.271 OA
BRANCH   6   7
ATOM      7  C3'  DA D   8      40.586  42.635  15.806  1.00 10.57     0.161 C 
ATOM      8  C4'  DA D   8      39.439  43.522  16.280  1.00 11.52     0.175 C 
ATOM      9  O4'  DA D   8      38.464  43.482  15.224  1.00 11.40    -0.333 OA
ATOM     10  C1'  DA D   8      38.656  42.307  14.419  1.00 11.23     0.210 C 
ATOM     11  C2'  DA D   8      39.874  41.575  14.980  1.00 12.23     0.087 C 
BRANCH   8  12
ATOM     12  C5'  DA D   8      39.794  44.960  16.564  1.00 13.06     0.187 C 
BRANCH  12  13
ATOM     13  O5'  DA D   8      40.174  45.113  17.909  1.00 11.03    -0.268 OA
BRANCH  13  14
ATOM     14  P    DA D   8      41.719  45.411  18.263  1.00 12.25     0.410 P 
ATOM     15  OP2  DA D   8      42.449  45.451  16.946  1.00 11.74    -0.624 OA
ATOM     16  OP1  DA D   8      42.177  44.486  19.311  1.00 15.55    -0.624 OA
BRANCH  14  17
ATOM     17  O3'  DC D   7      41.716  46.878  18.902  1.00 12.10    -0.271 OA
BRANCH  17  18
ATOM     18  C3'  DC D   7      42.555  47.148  20.043  1.00 11.74     0.161 C 
ATOM     19  C2'  DC D   7      44.010  47.429  19.676  1.00 11.76     0.087 C 
ATOM     20  C1'  DC D   7      44.484  48.325  20.826  1.00 12.42     0.211 C 
ATOM     21  O4'  DC D   7      43.314  48.939  21.355  1.00 12.34    -0.333 OA
ATOM     22  C4'  DC D   7      42.129  48.461  20.661  1.00 11.56     0.175 C 
BRANCH  20  23
ATOM     23  N1   DC D   7      45.036  47.462  21.897  1.00 11.09    -0.256 N 
ATOM     24  C2   DC D   7      46.131  47.956  22.610  1.00  9.80     0.353 A 
ATOM     25  O2   DC D   7      46.582  49.057  22.245  1.00 10.91    -0.244 OA
ATOM     26  N3   DC D   7      46.669  47.250  23.634  1.00  9.76    -0.171 NA
ATOM     27  C4   DC D   7      46.190  46.053  23.932  1.00 11.68     0.190 A 
ATOM     28  N4   DC D   7      46.759  45.364  24.962  1.00 10.83    -0.127 N 
ATOM     29  C5   DC D   7      45.074  45.486  23.200  1.00 10.32     0.060 A 
ATOM     30  C6   DC D   7      44.532  46.228  22.195  1.00 11.95     0.085 A 
ENDBRANCH  20  23
BRANCH  22  31
ATOM     31  C5'  DC D   7      40.984  48.371  21.631  1.00 14.18     0.187 C 
BRANCH  31  32
ATOM     32  O5'  DC D   7      39.835  47.874  20.931  1.00 16.43    -0.268 OA
BRANCH  32  33
ATOM     33  P    DC D   7      39.006  46.674  21.559  1.00 18.54     0.410 P 
ATOM     34  OP1  DC D   7      39.888  45.518  21.610  1.00 22.71    -0.624 OA
ATOM     35  OP2  DC D   7      38.353  47.199  22.755  1.00 19.79    -0.624 OA
BRANCH  33  36
ATOM     36  O3'  DC D   6      37.977  46.316  20.367  1.00 17.13    -0.271 OA
BRANCH  36  37
ATOM     37  C3'  DC D   6      36.675  45.861  20.658  1.00 14.94     0.161 C 
ATOM     38  C4'  DC D   6      36.749  44.345  20.802  1.00 15.77     0.175 C 
ATOM     39  O4'  DC D   6      36.395  43.832  19.505  1.00 13.81    -0.333 OA
ATOM     40  C1'  DC D   6      36.295  44.899  18.603  1.00 12.86     0.211 C 
ATOM     41  C2'  DC D   6      35.806  46.060  19.431  1.00 14.65     0.087 C 
BRANCH  38  42
ATOM     42  C5'  DC D   6      35.810  43.803  21.851  1.00 18.13     0.187 C 
BRANCH  42  43
ATOM     43  O5'  DC D   6      36.566  43.222  22.909  1.00 19.27    -0.268 OA
BRANCH  43  44
ATOM     44  P    DC D   6      36.710  43.981  24.314  1.00 19.84     0.410 P 
ATOM     45  OP1  DC D   6      35.974  45.259  24.132  1.00 24.35    -0.624 OA
ATOM     46  OP2  DC D   6      36.312  43.057  25.374  1.00 20.92    -0.624 OA
BRANCH  44  47
ATOM     47  O3'  DA D   5      38.265  44.324  24.342  1.00 19.93    -0.271 OA
BRANCH  47  48
ATOM     48  C3'  DA D   5      39.033  44.094  25.521  1.00 16.89     0.161 C 
ATOM     49  C4'  DA D   5      38.804  45.311  26.412  1.00 17.32     0.175 C 
ATOM     50  O4'  DA D   5      39.866  46.220  26.100  1.00 18.24    -0.333 OA
ATOM     51  C1'  DA D   5      40.797  45.601  25.193  1.00 15.77     0.210 C 
ATOM     52  C2'  DA D   5      40.538  44.110  25.256  1.00 16.34     0.087 C 
BRANCH  49  53
ATOM     53  C5'  DA D   5      38.699  45.019  27.892  1.00 17.61     0.187 C 
BRANCH  53  54
ATOM     54  O5'  DA D   5      37.346  44.721  28.226  1.00 19.33    -0.268 OA
BRANCH  54  55
ATOM     55  P    DA D   5      36.772  45.139  29.637  1.00 20.74     0.410 P 
ATOM     56  OP2  DA D   5      37.172  46.521  29.990  1.00 23.47    -0.624 OA
ATOM     57  OP1  DA D   5      37.068  44.004  30.570  1.00 23.99    -0.624 OA
BRANCH  55  58
ATOM     58  O3'  DT D   4      35.177  45.042  29.406  1.00 19.59    -0.271 OA
BRANCH  58  59
ATOM     59  C3'  DT D   4      34.623  44.354  28.264  1.00 18.10     0.161 C 
ATOM     60  C4'  DT D   4      33.338  45.085  27.842  1.00 15.82     0.175 C 
ATOM     61  O4'  DT D   4      32.239  44.287  28.321  1.00 16.38    -0.333 OA
ATOM     62  C1'  DT D   4      32.698  43.204  29.126  1.00 15.63     0.211 C 
ATOM     63  C2'  DT D   4      34.134  42.952  28.635  1.00 16.56     0.087 C 
BRANCH  60  64
ATOM     64  C5'  DT D   4      33.135  45.288  26.355  1.00 17.08     0.187 C 
BRANCH  64  65
ATOM     65  O5'  DT D   4      33.072  44.012  25.686  1.00 15.07    -0.268 OA
BRANCH  65  66
ATOM     66  P    DT D   4      32.196  43.853  24.361  1.00 15.11     0.410 P 
ATOM     67  OP1  DT D   4      30.975  43.012  24.684  1.00 18.00    -0.624 OA
ATOM     68  OP2  DT D   4      32.021  45.238  23.832  1.00 17.03    -0.624 OA
BRANCH  66  69
HETATM   69  O3' BRU D   3      33.096  42.943  23.463  1.00 15.24    -0.271 OA
BRANCH  69  70
HETATM   70  C3' BRU D   3      32.842  41.541  23.321  1.00 13.22     0.161 C 
HETATM   71  C4' BRU D   3      34.110  40.880  23.862  1.00 14.89     0.175 C 
HETATM   72  O4' BRU D   3      34.518  39.907  22.880  1.00 16.05    -0.333 OA
HETATM   73  C1' BRU D   3      34.115  40.410  21.611  1.00 15.34     0.211 C 
HETATM   74  C2' BRU D   3      32.725  41.001  21.888  1.00 12.90     0.087 C 
BRANCH  71  75
HETATM   75  C5' BRU D   3      34.088  40.291  25.249  1.00 17.61     0.187 C 
BRANCH  75  76
HETATM   76  O5' BRU D   3      34.555  38.956  25.248  1.00 15.66    -0.268 OA
BRANCH  76  77
HETATM   77  P   BRU D   3      35.879  38.637  26.084  1.00 16.77     0.410 P 
HETATM   78  OP1 BRU D   3      35.851  37.174  26.372  1.00 18.57    -0.624 OA
HETATM   79  OP2 BRU D   3      37.048  39.255  25.400  1.00 18.18    -0.624 OA
BRANCH  77  80
ATOM     80  O3'  DG D   2      35.667  39.386  27.473  1.00 17.32    -0.271 OA
BRANCH  80  81
ATOM     81  C3'  DG D   2      35.700  38.677  28.700  1.00 15.47     0.161 C 
ATOM     82  C2'  DG D   2      37.146  38.289  29.040  1.00 16.87     0.087 C 
ATOM     83  C1'  DG D   2      37.722  39.612  29.544  1.00 16.11     0.210 C 
ATOM     84  O4'  DG D   2      36.625  40.295  30.164  1.00 18.37    -0.333 OA
ATOM     85  C4'  DG D   2      35.360  39.729  29.757  1.00 18.34     0.175 C 
BRANCH  83  86
ATOM     86  N9   DG D   2      38.767  39.497  30.560  1.00 16.03    -0.272 N 
ATOM     87  C8   DG D   2      39.086  38.396  31.319  1.00 14.57     0.182 A 
ATOM     88  N7   DG D   2      40.010  38.632  32.220  1.00 16.34    -0.217 NA
ATOM     89  C5   DG D   2      40.324  39.990  32.032  1.00 13.99     0.175 A 
ATOM     90  C6   DG D   2      41.242  40.827  32.733  1.00 12.33     0.302 A 
ATOM     91  C4   DG D   2      39.590  40.523  30.985  1.00 12.94     0.172 A 
ATOM     92  O6   DG D   2      41.948  40.520  33.676  1.00 15.71    -0.263 OA
ATOM     93  N1   DG D   2      41.259  42.112  32.236  1.00 12.85    -0.174 NA
ATOM     94  C2   DG D   2      40.500  42.564  31.173  1.00 12.30     0.242 A 
ATOM     95  N2   DG D   2      40.671  43.886  30.789  1.00 15.13    -0.059 NA
ATOM     96  N3   DG D   2      39.623  41.781  30.494  1.00 14.89    -0.195 NA
ENDBRANCH  83  86
BRANCH  85  97
ATOM     97  C5'  DG D   2      34.595  39.231  30.960  1.00 20.11     0.187 C 
BRANCH  97  98
ATOM     98  O5'  DG D   2      33.216  39.069  30.648  1.00 21.44    -0.268 OA
BRANCH  98  99
ATOM     99  P    DG D   2      32.461  37.718  30.987  1.00 23.19     0.410 P 
ATOM    100  OP1  DG D   2      32.960  37.345  32.342  1.00 25.33    -0.624 OA
ATOM    101  OP2  DG D   2      31.015  37.779  30.725  1.00 23.21    -0.624 OA
BRANCH  99 102
ATOM    102  O3'  DC D   1      33.048  36.643  29.957  1.00 26.59    -0.271 OA
BRANCH 102 103
ATOM    103  C3'  DC D   1      33.644  35.461  30.476  1.00 27.88     0.161 C 
ATOM    104  C2'  DC D   1      32.896  34.275  29.901  1.00 26.06     0.087 C 
ATOM    105  C1'  DC D   1      33.467  34.252  28.502  1.00 24.51     0.211 C 
ATOM    106  O4'  DC D   1      34.855  34.589  28.649  1.00 29.50    -0.333 OA
ATOM    107  C4'  DC D   1      35.032  35.340  29.861  1.00 29.48     0.178 C 
BRANCH 105 108
ATOM    108  N1   DC D   1      33.413  32.988  27.757  1.00 21.38    -0.256 N 
ATOM    109  C6   DC D   1      33.455  31.777  28.395  1.00 19.62     0.085 A 
ATOM    110  C5   DC D   1      33.497  30.629  27.690  1.00 19.43     0.060 A 
ATOM    111  C4   DC D   1      33.449  30.735  26.265  1.00 17.00     0.190 A 
ATOM    112  N4   DC D   1      33.465  29.640  25.503  1.00 18.52    -0.127 N 
ATOM    113  N3   DC D   1      33.378  31.923  25.644  1.00 17.32    -0.171 NA
ATOM    114  C2   DC D   1      33.367  33.051  26.368  1.00 18.49     0.353 A 
ATOM    115  O2   DC D   1      33.323  34.158  25.822  1.00 18.51    -0.244 OA
ENDBRANCH 105 108
BRANCH 107 116
ATOM    116  C5'  DC D   1      36.081  34.691  30.737  1.00 31.78     0.214 C 
ATOM    117  O5'  DC D   1      36.474  35.580  31.787  1.00 34.90    -0.218 OA
ENDBRANCH 107 116
ENDBRANCH 102 103
ENDBRANCH  99 102
ENDBRANCH  98  99
ENDBRANCH  97  98
ENDBRANCH  85  97
ENDBRANCH  80  81
ENDBRANCH  77  80
ENDBRANCH  76  77
ENDBRANCH  75  76
ENDBRANCH  71  75
BRANCH  73 118
HETATM  118  N1  BRU D   3      34.108  39.288  20.669  1.00 13.25    -0.255 N 
HETATM  119  C2  BRU D   3      34.736  39.411  19.410  1.00 11.90     0.354 A 
HETATM  120  O2  BRU D   3      35.273  40.438  19.038  1.00 16.11    -0.244 OA
HETATM  121  N3  BRU D   3      34.705  38.303  18.623  1.00 12.15    -0.153 NA
HETATM  122  C4  BRU D   3      34.165  37.120  18.943  1.00 12.48     0.291 A 
HETATM  123  O4  BRU D   3      34.140  36.156  18.152  1.00 16.38    -0.264 OA
HETATM  124  C5  BRU D   3      33.545  37.129  20.222  1.00 14.67     0.110 A 
HETATM  125  C6  BRU D   3      33.534  38.171  21.003  1.00 13.17     0.094 A 
HETATM  126 BR   BRU D   3      32.560  35.374  20.840  1.00 24.07    -0.043 Br
ENDBRANCH  73 118
ENDBRANCH  69  70
ENDBRANCH  66  69
ENDBRANCH  65  66
ENDBRANCH  64  65
ENDBRANCH  60  64
BRANCH  62 127
ATOM    127  N1   DT D   4      31.698  42.110  28.963  1.00 13.98    -0.256 N 
ATOM    128  C2   DT D   4      30.846  41.846  29.999  1.00 13.56     0.354 A 
ATOM    129  O2   DT D   4      30.931  42.453  31.065  1.00 16.57    -0.244 OA
ATOM    130  N3   DT D   4      29.878  40.878  29.762  1.00 12.35    -0.153 NA
ATOM    131  C4   DT D   4      29.706  40.171  28.576  1.00 11.46     0.280 A 
ATOM    132  O4   DT D   4      28.775  39.362  28.437  1.00 13.76    -0.265 OA
ATOM    133  C5   DT D   4      30.692  40.466  27.554  1.00 12.51     0.053 A 
ATOM    134  C7   DT D   4      30.645  39.704  26.271  1.00 14.43     0.038 C 
ATOM    135  C6   DT D   4      31.613  41.405  27.779  1.00 14.14     0.083 A 
ENDBRANCH  62 127
ENDBRANCH  58  59
ENDBRANCH  55  58
ENDBRANCH  54  55
ENDBRANCH  53  54
ENDBRANCH  49  53
BRANCH  51 136
ATOM    136  N9   DA D   5      42.121  46.020  25.672  1.00 14.16    -0.272 N 
ATOM    137  C4   DA D   5      42.688  47.260  25.471  1.00 14.21     0.170 A 
ATOM    138  C5   DA D   5      43.823  47.278  26.269  1.00 12.40     0.155 A 
ATOM    139  N3   DA D   5      42.247  48.256  24.694  1.00 13.46    -0.205 NA
ATOM    140  C6   DA D   5      44.599  48.436  26.265  1.00 12.04     0.206 A 
ATOM    141  N7   DA D   5      43.970  46.079  26.917  1.00 14.47    -0.219 NA
ATOM    142  N6   DA D   5      45.723  48.553  26.999  1.00 12.46    -0.125 N 
ATOM    143  N1   DA D   5      44.193  49.468  25.489  1.00 13.98    -0.202 NA
ATOM    144  C2   DA D   5      43.058  49.315  24.777  1.00 14.25     0.202 A 
ATOM    145  C8   DA D   5      42.958  45.351  26.502  1.00 14.09     0.182 A 
ENDBRANCH  51 136
ENDBRANCH  47  48
ENDBRANCH  44  47
ENDBRANCH  43  44
ENDBRANCH  42  43
ENDBRANCH  38  42
BRANCH  40 146
ATOM    146  N1   DC D   6      35.444  44.473  17.454  1.00 11.89    -0.256 N 
ATOM    147  C2   DC D   6      35.590  45.177  16.246  1.00 11.45     0.353 A 
ATOM    148  O2   DC D   6      36.482  45.995  16.169  1.00 12.57    -0.244 OA
ATOM    149  N3   DC D   6      34.747  44.922  15.211  1.00 11.17    -0.171 NA
ATOM    150  C4   DC D   6      33.820  43.977  15.331  1.00 11.08     0.190 A 
ATOM    151  N4   DC D   6      32.980  43.747  14.308  1.00 10.70    -0.127 N 
ATOM    152  C5   DC D   6      33.692  43.199  16.542  1.00 10.83     0.060 A 
ATOM    153  C6   DC D   6      34.521  43.488  17.561  1.00 11.79     0.085 A 
ENDBRANCH  40 146
ENDBRANCH  36  37
ENDBRANCH  33  36
ENDBRANCH  32  33
ENDBRANCH  31  32
ENDBRANCH  22  31
ENDBRANCH  17  18
ENDBRANCH  14  17
ENDBRANCH  13  14
ENDBRANCH  12  13
ENDBRANCH   8  12
BRANCH  10 154
ATOM    154  N9   DA D   8      38.943  42.763  13.059  1.00 10.83    -0.272 N 
ATOM    155  C4   DA D   8      38.798  41.976  11.943  1.00  9.99     0.170 A 
ATOM    156  N3   DA D   8      38.394  40.679  11.900  1.00 10.21    -0.205 NA
ATOM    157  C5   DA D   8      39.106  42.788  10.874  1.00 10.31     0.155 A 
ATOM    158  C2   DA D   8      38.327  40.249  10.664  1.00 10.39     0.202 A 
ATOM    159  N1   DA D   8      38.607  40.919   9.523  1.00 11.14    -0.202 NA
ATOM    160  C6   DA D   8      38.965  42.222   9.598  1.00 10.09     0.206 A 
ATOM    161  N6   DA D   8      39.118  42.885   8.461  1.00 11.37    -0.125 N 
ATOM    162  N7   DA D   8      39.488  44.065  11.321  1.00 10.47    -0.219 NA
ATOM    163  C8   DA D   8      39.384  43.980  12.629  1.00 11.39     0.182 A 
ENDBRANCH  10 154
ENDBRANCH   6   7
ENDBRANCH   3   6
ENDBRANCH   2   3
ENDBRANCH   1   2
BRANCH   1 164
HETATM  164  C4' BRU D   9      39.144  41.584  21.160  1.00 14.07     0.175 C 
HETATM  165  O4' BRU D   9      37.977  40.759  20.862  1.00 13.32    -0.333 OA
HETATM  166  C1' BRU D   9      37.921  39.673  21.782  1.00 13.84     0.211 C 
HETATM  167  C2' BRU D   9      39.235  39.635  22.533  1.00 12.11     0.087 C 
HETATM  168  C3' BRU D   9      40.126  40.616  21.787  1.00 15.00     0.161 C 
BRANCH 166 169
HETATM  169  N1  BRU D   9      37.822  38.432  21.009  1.00 13.67    -0.255 N 
HETATM  170  C2  BRU D   9      37.196  37.376  21.569  1.00 11.22     0.354 A 
HETATM  171  O2  BRU D   9      36.762  37.432  22.698  1.00 13.50    -0.244 OA
HETATM  172  N3  BRU D   9      37.080  36.249  20.767  1.00 11.85    -0.153 NA
HETATM  173  C4  BRU D   9      37.541  36.146  19.516  1.00 10.30     0.291 A 
HETATM  174  O4  BRU D   9      37.305  35.123  18.820  1.00 12.93    -0.264 OA
HETATM  175  C5  BRU D   9      38.229  37.327  19.066  1.00 12.08     0.110 A 
HETATM  176  C6  BRU D   9      38.343  38.385  19.795  1.00 13.06     0.094 A 
HETATM  177 BR   BRU D   9      38.923  37.098  17.125  1.00 15.13    -0.043 Br
ENDBRANCH 166 169
BRANCH 168 178
HETATM  178  O3' BRU D   9      40.992  41.282  22.696  1.00 13.15    -0.271 OA
BRANCH 178 179
ATOM    179  P    DG D  10      42.319  40.542  23.132  1.00 14.52     0.410 P 
ATOM    180  OP2  DG D  10      42.171  39.798  24.426  1.00 14.92    -0.624 OA
ATOM    181  OP1  DG D  10      42.813  39.808  21.916  1.00 16.08    -0.624 OA
BRANCH 179 182
ATOM    182  O5'  DG D  10      43.352  41.736  23.470  1.00 14.63    -0.268 OA
BRANCH 182 183
ATOM    183  C5'  DG D  10      43.594  42.154  24.803  1.00 14.28     0.187 C 
BRANCH 183 184
ATOM    184  C4'  DG D  10      45.029  41.868  25.170  1.00 14.53     0.175 C 
ATOM    185  C3'  DG D  10      45.364  40.408  25.435  1.00 16.36     0.161 C 
ATOM    186  C2'  DG D  10      45.232  40.301  26.953  1.00 15.07     0.087 C 
ATOM    187  C1'  DG D  10      45.797  41.643  27.362  1.00 13.41     0.210 C 
ATOM    188  O4'  DG D  10      45.346  42.578  26.393  1.00 13.85    -0.333 OA
BRANCH 185 189
ATOM    189  O3'  DG D  10      46.715  40.272  24.990  1.00 20.48    -0.271 OA
BRANCH 189 190
ATOM    190  P    DG D  11      47.229  38.889  24.349  1.00 20.71     0.410 P 
ATOM    191  OP2  DG D  11      47.528  38.963  22.902  1.00 22.10    -0.624 OA
ATOM    192  OP1  DG D  11      48.233  38.347  25.302  1.00 24.32    -0.624 OA
BRANCH 190 193
ATOM    193  O5'  DG D  11      45.960  37.952  24.469  1.00 19.33    -0.268 OA
BRANCH 193 194
ATOM    194  C5'  DG D  11      46.077  36.700  25.134  1.00 18.66     0.187 C 
BRANCH 194 195
ATOM    195  C4'  DG D  11      44.874  36.500  26.020  1.00 18.71     0.175 C 
ATOM    196  C3'  DG D  11      44.589  35.042  26.313  1.00 19.69     0.161 C 
ATOM    197  C2'  DG D  11      43.610  34.661  25.217  1.00 18.26     0.087 C 
ATOM    198  C1'  DG D  11      42.782  35.938  25.119  1.00 15.98     0.210 C 
ATOM    199  O4'  DG D  11      43.646  37.012  25.452  1.00 17.85    -0.333 OA
BRANCH 196 200
ATOM    200  O3'  DG D  11      43.929  35.053  27.570  1.00 24.65    -0.271 OA
BRANCH 200 201
ATOM    201  P    DT D  12      44.279  33.961  28.633  1.00 28.19     0.410 P 
ATOM    202  OP2  DT D  12      45.705  33.564  28.650  1.00 27.85    -0.624 OA
ATOM    203  OP1  DT D  12      43.601  34.466  29.863  1.00 29.91    -0.624 OA
BRANCH 201 204
ATOM    204  O5'  DT D  12      43.544  32.663  28.106  1.00 28.66    -0.268 OA
BRANCH 204 205
ATOM    205  C5'  DT D  12      44.318  31.518  27.941  1.00 29.00     0.187 C 
BRANCH 205 206
ATOM    206  C4'  DT D  12      44.311  31.080  26.512  1.00 28.07     0.175 C 
ATOM    207  C3'  DT D  12      44.404  29.591  26.247  1.00 29.44     0.161 C 
ATOM    208  C2'  DT D  12      45.698  29.444  25.459  1.00 29.37     0.087 C 
ATOM    209  C1'  DT D  12      45.858  30.826  24.808  1.00 27.26     0.211 C 
ATOM    210  O4'  DT D  12      45.340  31.724  25.744  1.00 26.37    -0.333 OA
BRANCH 207 211
ATOM    211  O3'  DT D  12      43.254  29.402  25.465  1.00 31.26    -0.271 OA
BRANCH 211 212
ATOM    212  P    DA D  13      41.971  28.680  26.058  1.00 34.05     0.410 P 
ATOM    213  OP2  DA D  13      41.478  27.672  25.072  1.00 31.89    -0.624 OA
ATOM    214  OP1  DA D  13      42.420  28.260  27.393  1.00 33.32    -0.624 OA
BRANCH 212 215
ATOM    215  O5'  DA D  13      40.996  29.916  26.230  1.00 31.02    -0.268 OA
BRANCH 215 216
ATOM    216  C5'  DA D  13      40.057  30.233  25.203  1.00 27.53     0.187 C 
BRANCH 216 217
ATOM    217  C4'  DA D  13      40.110  31.710  24.902  1.00 25.33     0.175 C 
ATOM    218  O4'  DA D  13      41.392  32.082  24.336  1.00 22.92    -0.333 OA
ATOM    219  C1'  DA D  13      41.225  32.682  23.048  1.00 20.98     0.210 C 
ATOM    220  C2'  DA D  13      39.815  32.287  22.583  1.00 23.30     0.087 C 
ATOM    221  C3'  DA D  13      39.053  32.183  23.897  1.00 26.45     0.161 C 
BRANCH 219 222
ATOM    222  N9   DA D  13      42.303  32.172  22.213  1.00 17.31    -0.272 N 
ATOM    223  C8   DA D  13      43.225  32.898  21.543  1.00 17.58     0.182 A 
ATOM    224  N7   DA D  13      44.005  32.193  20.767  1.00 17.72    -0.219 NA
ATOM    225  C5   DA D  13      43.600  30.900  20.973  1.00 14.33     0.155 A 
ATOM    226  C6   DA D  13      44.033  29.666  20.463  1.00 14.45     0.206 A 
ATOM    227  C4   DA D  13      42.547  30.862  21.881  1.00 15.76     0.170 A 
ATOM    228  N6   DA D  13      45.022  29.515  19.537  1.00 15.52    -0.125 N 
ATOM    229  N1   DA D  13      43.416  28.576  20.919  1.00 14.59    -0.202 NA
ATOM    230  C2   DA D  13      42.403  28.694  21.787  1.00 15.74     0.202 A 
ATOM    231  N3   DA D  13      41.882  29.792  22.312  1.00 15.60    -0.205 NA
ENDBRANCH 219 222
BRANCH 221 232
ATOM    232  O3'  DA D  13      38.601  33.464  24.288  1.00 30.43    -0.271 OA
BRANCH 232 233
ATOM    233  P    DA D  14      37.206  33.596  25.046  1.00 32.07     0.410 P 
ATOM    234  OP2  DA D  14      36.380  34.561  24.337  1.00 33.16    -0.624 OA
ATOM    235  OP1  DA D  14      36.732  32.201  25.253  1.00 33.96    -0.624 OA
BRANCH 233 236
ATOM    236  O5'  DA D  14      37.637  34.158  26.447  1.00 31.87    -0.268 OA
BRANCH 236 237
ATOM    237  C5'  DA D  14      37.890  33.242  27.499  1.00 30.81     0.187 C 
BRANCH 237 238
ATOM    238  C4'  DA D  14      39.313  33.401  27.962  1.00 31.39     0.175 C 
ATOM    239  O4'  DA D  14      39.913  34.559  27.327  1.00 30.66    -0.333 OA
ATOM    240  C1'  DA D  14      40.463  35.383  28.337  1.00 28.20     0.210 C 
ATOM    241  C2'  DA D  14      39.596  35.151  29.559  1.00 29.16     0.087 C 
ATOM    242  C3'  DA D  14      39.427  33.647  29.463  1.00 31.09     0.161 C 
BRANCH 240 243
ATOM    243  N9   DA D  14      40.517  36.742  27.840  1.00 24.41    -0.272 N 
ATOM    244  C4   DA D  14      41.336  37.686  28.395  1.00 21.62     0.170 A 
ATOM    245  N3   DA D  14      42.222  37.493  29.398  1.00 18.94    -0.205 NA
ATOM    246  C5   DA D  14      41.034  38.857  27.753  1.00 22.12     0.155 A 
ATOM    247  C2   DA D  14      42.791  38.667  29.743  1.00 18.83     0.202 A 
ATOM    248  N1   DA D  14      42.593  39.851  29.202  1.00 18.79    -0.202 NA
ATOM    249  C6   DA D  14      41.711  39.979  28.169  1.00 19.52     0.206 A 
ATOM    250  N6   DA D  14      41.541  41.153  27.595  1.00 21.07    -0.125 N 
ATOM    251  N7   DA D  14      40.059  38.659  26.776  1.00 24.53    -0.219 NA
ATOM    252  C8   DA D  14      39.808  37.374  26.855  1.00 24.70     0.182 A 
ENDBRANCH 240 243
BRANCH 242 253
ATOM    253  O3'  DA D  14      40.609  32.995  29.868  1.00 31.14    -0.271 OA
BRANCH 253 254
ATOM    254  P    DC D  15      40.796  32.524  31.392  1.00 30.59     0.410 P 
ATOM    255  OP1  DC D  15      39.536  31.812  31.753  1.00 31.75    -0.624 OA
ATOM    256  OP2  DC D  15      41.328  33.612  32.268  1.00 29.87    -0.624 OA
BRANCH 254 257
ATOM    257  O5'  DC D  15      41.919  31.403  31.172  1.00 30.76    -0.268 OA
BRANCH 257 258
ATOM    258  C5'  DC D  15      41.793  30.113  31.828  1.00 28.28     0.187 C 
BRANCH 258 259
ATOM    259  C4'  DC D  15      41.720  28.985  30.816  1.00 28.15     0.175 C 
ATOM    260  O4'  DC D  15      42.798  28.038  30.995  1.00 23.18    -0.333 OA
ATOM    261  C1'  DC D  15      42.289  26.719  31.197  1.00 22.58     0.211 C 
ATOM    262  C2'  DC D  15      40.817  26.882  31.537  1.00 24.52     0.087 C 
ATOM    263  C3'  DC D  15      40.438  28.164  30.819  1.00 28.37     0.161 C 
BRANCH 261 264
ATOM    264  N1   DC D  15      43.042  26.127  32.305  1.00 18.64    -0.256 N 
ATOM    265  C6   DC D  15      43.415  26.888  33.380  1.00 16.47     0.085 A 
ATOM    266  C5   DC D  15      44.168  26.388  34.355  1.00 15.01     0.060 A 
ATOM    267  C4   DC D  15      44.588  25.012  34.218  1.00 13.33     0.190 A 
ATOM    268  N3   DC D  15      44.158  24.250  33.216  1.00 13.89    -0.171 NA
ATOM    269  N4   DC D  15      45.433  24.494  35.090  1.00 15.28    -0.127 N 
ATOM    270  C2   DC D  15      43.403  24.763  32.243  1.00 18.12     0.353 A 
ATOM    271  O2   DC D  15      43.017  24.090  31.260  1.00 20.47    -0.244 OA
ENDBRANCH 261 264
BRANCH 263 272
ATOM    272  O3'  DC D  15      40.061  27.850  29.487  1.00 31.34    -0.271 OA
BRANCH 272 273
ATOM    273  P    DG D  16      38.787  28.556  28.861  1.00 32.78     0.410 P 
ATOM    274  OP1  DG D  16      38.560  27.946  27.519  1.00 34.59    -0.624 OA
ATOM    275  OP2  DG D  16      38.998  30.020  28.986  1.00 31.45    -0.624 OA
BRANCH 273 276
ATOM    276  O5'  DG D  16      37.624  28.138  29.852  1.00 31.83    -0.268 OA
BRANCH 276 277
ATOM    277  C5'  DG D  16      36.702  27.118  29.502  1.00 31.48     0.187 C 
BRANCH 277 278
ATOM    278  C4'  DG D  16      35.341  27.727  29.283  1.00 29.56     0.178 C 
ATOM    279  C3'  DG D  16      34.241  27.191  30.209  1.00 29.50     0.186 C 
ATOM    280  C2'  DG D  16      33.482  26.227  29.308  1.00 28.21     0.090 C 
ATOM    281  O3'  DG D  16      33.346  28.277  30.542  1.00 31.52    -0.221 OA
ATOM    282  C1'  DG D  16      33.560  26.973  28.003  1.00 24.75     0.210 C 
ATOM    283  O4'  DG D  16      34.888  27.444  27.941  1.00 27.49    -0.333 OA
BRANCH 282 284
ATOM    284  N9   DG D  16      33.316  26.185  26.808  1.00 21.33    -0.271 N 
ATOM    285  C4   DG D  16      32.175  26.210  26.059  1.00 19.88     0.188 A 
ATOM    286  N3   DG D  16      31.093  27.006  26.283  1.00 18.33    -0.038 NA
ATOM    287  C5   DG D  16      32.369  25.274  25.069  1.00 17.85     0.176 A 
ATOM    288  C2   DG D  16      30.145  26.805  25.413  1.00 15.82     0.773 A 
ATOM    289  N1   DG D  16      30.234  25.864  24.395  1.00 16.33    -0.016 NA
ATOM    290  N2   DG D  16      28.995  27.550  25.465  1.00 16.23     0.062 N 
ATOM    291  C6   DG D  16      31.332  25.046  24.144  1.00 15.94     0.316 A 
ATOM    292  O6   DG D  16      31.282  24.233  23.181  1.00 18.70    -0.263 OA
ATOM    293  N7   DG D  16      33.637  24.713  25.171  1.00 18.48    -0.217 NA
ATOM    294  C8   DG D  16      34.156  25.276  26.225  1.00 19.50     0.182 A 
ENDBRANCH 282 284
ENDBRANCH 277 278
ENDBRANCH 276 277
ENDBRANCH 273 276
ENDBRANCH 272 273
ENDBRANCH 263 272
ENDBRANCH 258 259
ENDBRANCH 257 258
ENDBRANCH 254 257
ENDBRANCH 253 254
ENDBRANCH 242 253
ENDBRANCH 237 238
ENDBRANCH 236 237
ENDBRANCH 233 236
ENDBRANCH 232 233
ENDBRANCH 221 232
ENDBRANCH 216 217
ENDBRANCH 215 216
ENDBRANCH 212 215
ENDBRANCH 211 212
ENDBRANCH 207 211
BRANCH 209 295
ATOM    295  N1   DT D  12      47.227  31.282  24.541  1.00 25.54    -0.256 N 
ATOM    296  C6   DT D  12      48.073  31.649  25.568  1.00 22.97     0.083 A 
ATOM    297  C5   DT D  12      49.311  32.142  25.372  1.00 22.23     0.053 A 
ATOM    298  C4   DT D  12      49.771  32.286  24.020  1.00 20.03     0.280 A 
ATOM    299  C7   DT D  12      50.241  32.538  26.473  1.00 23.27     0.038 C 
ATOM    300  O4   DT D  12      50.871  32.752  23.735  1.00 18.53    -0.265 OA
ATOM    301  N3   DT D  12      48.885  31.864  23.028  1.00 19.51    -0.153 NA
ATOM    302  C2   DT D  12      47.624  31.366  23.214  1.00 22.25     0.354 A 
ATOM    303  O2   DT D  12      46.898  31.026  22.286  1.00 24.24    -0.244 OA
ENDBRANCH 209 295
ENDBRANCH 205 206
ENDBRANCH 204 205
ENDBRANCH 201 204
ENDBRANCH 200 201
ENDBRANCH 196 200
BRANCH 198 304
ATOM    304  N9   DG D  11      42.239  36.238  23.798  1.00 15.12    -0.271 N 
ATOM    305  C8   DG D  11      40.918  36.411  23.458  1.00 13.13     0.182 A 
ATOM    306  N7   DG D  11      40.736  36.561  22.173  1.00 13.46    -0.217 NA
ATOM    307  C5   DG D  11      42.015  36.478  21.631  1.00 11.37     0.176 A 
ATOM    308  C6   DG D  11      42.421  36.536  20.288  1.00 10.16     0.316 A 
ATOM    309  C4   DG D  11      42.959  36.311  22.615  1.00 12.33     0.188 A 
ATOM    310  O6   DG D  11      41.718  36.607  19.303  1.00 10.86    -0.263 OA
ATOM    311  N1   DG D  11      43.818  36.470  20.174  1.00 10.07    -0.016 NA
ATOM    312  C2   DG D  11      44.700  36.323  21.243  1.00 11.41     0.773 A 
ATOM    313  N2   DG D  11      46.038  36.314  20.968  1.00 10.83     0.062 N 
ATOM    314  N3   DG D  11      44.303  36.209  22.497  1.00 11.83    -0.038 NA
ENDBRANCH 198 304
ENDBRANCH 194 195
ENDBRANCH 193 194
ENDBRANCH 190 193
ENDBRANCH 189 190
ENDBRANCH 185 189
BRANCH 187 315
ATOM    315  N9   DG D  10      45.318  42.071  28.668  1.00 11.23    -0.271 N 
ATOM    316  C8   DG D  10      44.331  42.998  28.948  1.00 12.20     0.182 A 
ATOM    317  N7   DG D  10      44.081  43.097  30.237  1.00 12.66    -0.217 NA
ATOM    318  C5   DG D  10      44.977  42.213  30.826  1.00 10.47     0.176 A 
ATOM    319  C4   DG D  10      45.747  41.581  29.876  1.00 10.52     0.188 A 
ATOM    320  C6   DG D  10      45.210  41.888  32.218  1.00 11.39     0.316 A 
ATOM    321  N3   DG D  10      46.723  40.672  30.061  1.00 10.98    -0.038 NA
ATOM    322  C2   DG D  10      46.880  40.356  31.341  1.00  8.78     0.773 A 
ATOM    323  N1   DG D  10      46.182  40.929  32.370  1.00  9.45    -0.016 NA
ATOM    324  N2   DG D  10      47.748  39.415  31.698  1.00 10.60     0.062 N 
ATOM    325  O6   DG D  10      44.670  42.371  33.241  1.00 10.46    -0.263 OA
ENDBRANCH 187 315
ENDBRANCH 183 184
ENDBRANCH 182 183
ENDBRANCH 179 182
ENDBRANCH 178 179
ENDBRANCH 168 178
ENDBRANCH   1 164
TORSDOF 92
ENDMDL
MODEL 10
REMARK VINA RESULT:      -0.1      3.572     10.742
REMARK WARNING: 32 MAX_TORS EXCEEDED!!!
REMARK  92 active torsions:
REMARK  status: ('A' for Active; 'I' for Inactive)
REMARK    1  A    between atoms: C5'_1  and  C4'_3 
REMARK    2  A    between atoms: C3'_5  and  O3'_6 
REMARK    3  A    between atoms: O3'_6  and  P_17 
REMARK    4  A    between atoms: C1'_8  and  N1_9 
REMARK    5  A    between atoms: P_17  and  O5'_19 
REMARK    6  A    between atoms: C5'_18  and  O5'_19 
REMARK    7  A    between atoms: C5'_18  and  C4'_20 
REMARK    8  A    between atoms: C3'_22  and  O3'_23 
REMARK    9  A    between atoms: O3'_23  and  P_39 
REMARK   10  A    between atoms: C1'_25  and  N9_36 
REMARK   11  A    between atoms: P_39  and  O5'_41 
REMARK   12  A    between atoms: C5'_40  and  O5'_41 
REMARK   13  A    between atoms: C5'_40  and  C4'_42 
REMARK   14  A    between atoms: C3'_44  and  O3'_45 
REMARK   15  A    between atoms: O3'_45  and  P_59 
REMARK   16  A    between atoms: C1'_47  and  N1_48 
REMARK   17  A    between atoms: P_59  and  O5'_61 
REMARK   18  A    between atoms: C5'_60  and  C4'_62 
REMARK   19  A    between atoms: C5'_60  and  O5'_61 
REMARK   20  A    between atoms: C3'_64  and  O3'_65 
REMARK   21  A    between atoms: O3'_65  and  P_79 
REMARK   22  A    between atoms: C1'_67  and  N1_68 
REMARK   23  A    between atoms: P_79  and  O5'_81 
REMARK   24  A    between atoms: C5'_80  and  C4'_82 
REMARK   25  A    between atoms: C5'_80  and  O5'_81 
REMARK   26  A    between atoms: C3'_84  and  O3'_85 
REMARK   27  A    between atoms: O3'_85  and  P_100 
REMARK   28  A    between atoms: C1'_87  and  N9_97 
REMARK   29  A    between atoms: P_100  and  O5'_102 
REMARK   30  A    between atoms: C5'_101  and  C4'_103 
REMARK   31  A    between atoms: C5'_101  and  O5'_102 
REMARK   32  A    between atoms: C3'_105  and  O3'_106 
REMARK   33  A    between atoms: O3'_106  and  P_119 
REMARK   34  A    between atoms: C1'_108  and  N1_109 
REMARK   35  A    between atoms: P_119  and  O5'_121 
REMARK   36  A    between atoms: C5'_120  and  O5'_121 
REMARK   37  A    between atoms: C5'_120  and  C4'_122 
REMARK   38  A    between atoms: C3'_124  and  O3'_125 
REMARK   39  A    between atoms: O3'_125  and  P_138 
REMARK   40  A    between atoms: C1'_127  and  N1_128 
REMARK   41  A    between atoms: P_138  and  O5'_140 
REMARK   42  A    between atoms: C5'_139  and  C4'_141 
REMARK   43  A    between atoms: C5'_139  and  O5'_140 
REMARK   44  A    between atoms: C3'_143  and  O3'_144 
REMARK   45  A    between atoms: O3'_144  and  P_159 
REMARK   46  A    between atoms: C1'_146  and  N9_156 
REMARK   47  A    between atoms: P_159  and  O5'_161 
REMARK   48  A    between atoms: C5'_160  and  O5'_161 
REMARK   49  A    between atoms: C5'_160  and  C4'_162 
REMARK   50  A    between atoms: C3'_164  and  O3'_165 
REMARK   51  A    between atoms: O3'_165  and  P_179 
REMARK   52  A    between atoms: C1'_167  and  N1_168 
REMARK   53  A    between atoms: P_179  and  O5'_181 
REMARK   54  A    between atoms: C5'_180  and  C4'_182 
REMARK   55  A    between atoms: C5'_180  and  O5'_181 
REMARK   56  A    between atoms: C3'_184  and  O3'_185 
REMARK   57  A    between atoms: O3'_185  and  P_201 
REMARK   58  A    between atoms: C1'_187  and  N9_198 
REMARK   59  A    between atoms: P_201  and  O5'_203 
REMARK   60  A    between atoms: C5'_202  and  O5'_203 
REMARK   61  A    between atoms: C5'_202  and  C4'_204 
REMARK   62  A    between atoms: C3'_206  and  O3'_207 
REMARK   63  A    between atoms: O3'_207  and  P_223 
REMARK   64  A    between atoms: C1'_209  and  N9_220 
REMARK   65  A    between atoms: P_223  and  O5'_225 
REMARK   66  A    between atoms: C5'_224  and  O5'_225 
REMARK   67  A    between atoms: C5'_224  and  C4'_226 
REMARK   68  A    between atoms: C3'_228  and  O3'_229 
REMARK   69  A    between atoms: O3'_229  and  P_243 
REMARK   70  A    between atoms: C1'_231  and  N1_232 
REMARK   71  A    between atoms: P_243  and  O5'_245 
REMARK   72  A    between atoms: C5'_244  and  C4'_246 
REMARK   73  A    between atoms: C5'_244  and  O5'_245 
REMARK   74  A    between atoms: C3'_248  and  O3'_249 
REMARK   75  A    between atoms: O3'_249  and  P_264 
REMARK   76  A    between atoms: C1'_251  and  N9_261 
REMARK   77  A    between atoms: P_264  and  O5'_266 
REMARK   78  A    between atoms: C5'_265  and  C4'_267 
REMARK   79  A    between atoms: C5'_265  and  O5'_266 
REMARK   80  A    between atoms: C3'_269  and  O3'_270 
REMARK   81  A    between atoms: O3'_270  and  P_285 
REMARK   82  A    between atoms: C1'_272  and  N9_282 
REMARK   83  A    between atoms: P_285  and  O5'_287 
REMARK   84  A    between atoms: C5'_286  and  O5'_287 
REMARK   85  A    between atoms: C5'_286  and  C4'_288 
REMARK   86  A    between atoms: C3'_290  and  O3'_291 
REMARK   87  A    between atoms: O3'_291  and  P_304 
REMARK   88  A    between atoms: C1'_293  and  N1_294 
REMARK   89  A    between atoms: P_304  and  O5'_306 
REMARK   90  A    between atoms: C5'_305  and  C4'_307 
REMARK   91  A    between atoms: C5'_305  and  O5'_306 
REMARK   92  A    between atoms: C1'_312  and  N9_323 
ROOT
HETATM    1  C5' BRU D   9      44.094  44.332  12.951  1.00 14.48     0.187 C 
ENDROOT
BRANCH   1   2
HETATM    2  O5' BRU D   9      43.939  43.035  13.495  1.00 12.82    -0.268 OA
BRANCH   2   3
HETATM    3  P   BRU D   9      45.208  42.166  13.863  1.00 11.11     0.410 P 
HETATM    4  OP1 BRU D   9      45.853  41.636  12.605  1.00 14.53    -0.624 OA
HETATM    5  OP2 BRU D   9      45.994  43.032  14.782  1.00 12.75    -0.624 OA
BRANCH   3   6
ATOM      6  O3'  DA D   8      44.579  40.876  14.535  1.00 11.43    -0.271 OA
BRANCH   6   7
ATOM      7  C3'  DA D   8      45.431  39.981  15.223  1.00 10.57     0.161 C 
ATOM      8  C4'  DA D   8      44.913  38.558  15.039  1.00 11.52     0.175 C 
ATOM      9  O4'  DA D   8      45.318  37.848  16.222  1.00 11.40    -0.333 OA
ATOM     10  C1'  DA D   8      45.567  38.775  17.292  1.00 11.23     0.210 C 
ATOM     11  C2'  DA D   8      45.349  40.178  16.728  1.00 12.23     0.087 C 
BRANCH   8  12
ATOM     12  C5'  DA D   8      45.427  37.822  13.827  1.00 13.06     0.187 C 
BRANCH  12  13
ATOM     13  O5'  DA D   8      44.370  37.180  13.159  1.00 11.03    -0.268 OA
BRANCH  13  14
ATOM     14  P    DA D   8      44.035  35.642  13.508  1.00 12.25     0.410 P 
ATOM     15  OP2  DA D   8      45.303  35.055  14.071  1.00 11.74    -0.624 OA
ATOM     16  OP1  DA D   8      43.394  34.996  12.352  1.00 15.55    -0.624 OA
BRANCH  14  17
ATOM     17  O3'  DC D   7      42.936  35.717  14.670  1.00 12.10    -0.271 OA
BRANCH  17  18
ATOM     18  C3'  DC D   7      43.036  34.815  15.789  1.00 11.74     0.161 C 
ATOM     19  C2'  DC D   7      42.922  35.511  17.144  1.00 11.76     0.087 C 
ATOM     20  C1'  DC D   7      42.360  34.407  18.047  1.00 12.42     0.211 C 
ATOM     21  O4'  DC D   7      41.685  33.497  17.185  1.00 12.34    -0.333 OA
ATOM     22  C4'  DC D   7      41.821  33.913  15.798  1.00 11.56     0.175 C 
BRANCH  20  23
ATOM     23  N1   DC D   7      43.495  33.667  18.646  1.00 11.09    -0.256 N 
ATOM     24  C2   DC D   7      43.983  34.132  19.870  1.00  9.80     0.353 A 
ATOM     25  O2   DC D   7      43.455  35.163  20.323  1.00 10.91    -0.244 OA
ATOM     26  N3   DC D   7      44.990  33.487  20.507  1.00  9.76    -0.171 NA
ATOM     27  C4   DC D   7      45.559  32.434  19.943  1.00 11.68     0.190 A 
ATOM     28  N4   DC D   7      46.577  31.813  20.605  1.00 10.83    -0.127 N 
ATOM     29  C5   DC D   7      45.107  31.933  18.658  1.00 10.32     0.060 A 
ATOM     30  C6   DC D   7      44.075  32.581  18.053  1.00 11.95     0.085 A 
ENDBRANCH  20  23
BRANCH  22  31
ATOM     31  C5'  DC D   7      41.918  32.698  14.919  1.00 14.18     0.187 C 
BRANCH  31  32
ATOM     32  O5'  DC D   7      40.642  32.482  14.302  1.00 16.43    -0.268 OA
BRANCH  32  33
ATOM     33  P    DC D   7      39.916  31.082  14.494  1.00 18.54     0.410 P 
ATOM     34  OP1  DC D   7      38.483  31.332  14.478  1.00 22.71    -0.624 OA
ATOM     35  OP2  DC D   7      40.548  30.154  13.559  1.00 19.79    -0.624 OA
BRANCH  33  36
ATOM     36  O3'  DC D   6      40.230  30.750  16.042  1.00 17.13    -0.271 OA
BRANCH  36  37
ATOM     37  C3'  DC D   6      40.684  29.471  16.421  1.00 14.94     0.161 C 
ATOM     38  C4'  DC D   6      39.653  28.894  17.385  1.00 15.77     0.175 C 
ATOM     39  O4'  DC D   6      40.151  29.212  18.696  1.00 13.81    -0.333 OA
ATOM     40  C1'  DC D   6      41.264  30.053  18.571  1.00 12.86     0.211 C 
ATOM     41  C2'  DC D   6      41.923  29.632  17.282  1.00 14.65     0.087 C 
BRANCH  38  42
ATOM     42  C5'  DC D   6      39.478  27.402  17.242  1.00 18.13     0.187 C 
BRANCH  42  43
ATOM     43  O5'  DC D   6      38.107  27.106  16.995  1.00 19.27    -0.268 OA
BRANCH  43  44
ATOM     44  P    DC D   6      37.548  25.618  17.205  1.00 19.84     0.410 P 
ATOM     45  OP1  DC D   6      36.799  25.314  15.959  1.00 24.35    -0.624 OA
ATOM     46  OP2  DC D   6      38.665  24.766  17.609  1.00 20.92    -0.624 OA
BRANCH  44  47
ATOM     47  O3'  DA D   5      36.479  25.832  18.366  1.00 19.93    -0.271 OA
BRANCH  47  48
ATOM     48  C3'  DA D   5      36.599  26.934  19.263  1.00 16.89     0.161 C 
ATOM     49  C4'  DA D   5      37.404  26.419  20.452  1.00 17.32     0.175 C 
ATOM     50  O4'  DA D   5      36.435  25.967  21.404  1.00 18.24    -0.333 OA
ATOM     51  C1'  DA D   5      35.108  26.288  20.950  1.00 15.77     0.210 C 
ATOM     52  C2'  DA D   5      35.261  27.344  19.874  1.00 16.34     0.087 C 
BRANCH  49  53
ATOM     53  C5'  DA D   5      38.389  27.404  21.041  1.00 17.61     0.187 C 
BRANCH  53  54
ATOM     54  O5'  DA D   5      39.490  26.698  21.607  1.00 19.33    -0.268 OA
BRANCH  54  55
ATOM     55  P    DA D   5      40.233  27.282  22.873  1.00 20.74     0.410 P 
ATOM     56  OP2  DA D   5      40.472  28.737  22.732  1.00 23.47    -0.624 OA
ATOM     57  OP1  DA D   5      41.374  26.353  23.164  1.00 23.99    -0.624 OA
BRANCH  55  58
ATOM     58  O3'  DT D   4      39.182  26.983  24.062  1.00 19.59    -0.271 OA
BRANCH  58  59
ATOM     59  C3'  DT D   4      38.566  28.055  24.808  1.00 18.10     0.161 C 
ATOM     60  C4'  DT D   4      39.422  28.324  26.056  1.00 15.82     0.175 C 
ATOM     61  O4'  DT D   4      38.727  27.723  27.164  1.00 16.38    -0.333 OA
ATOM     62  C1'  DT D   4      37.594  26.980  26.723  1.00 15.63     0.211 C 
ATOM     63  C2'  DT D   4      37.213  27.634  25.384  1.00 16.56     0.087 C 
BRANCH  60  64
ATOM     64  C5'  DT D   4      39.665  29.776  26.408  1.00 17.08     0.187 C 
BRANCH  64  65
ATOM     65  O5'  DT D   4      40.765  30.295  25.633  1.00 15.07    -0.268 OA
BRANCH  65  66
ATOM     66  P    DT D   4      40.739  31.811  25.133  1.00 15.11     0.410 P 
ATOM     67  OP1  DT D   4      39.830  32.609  26.049  1.00 18.00    -0.624 OA
ATOM     68  OP2  DT D   4      42.171  32.206  24.987  1.00 17.03    -0.624 OA
BRANCH  66  69
HETATM   69  O3' BRU D   3      39.970  31.710  23.776  1.00 15.24    -0.271 OA
BRANCH  69  70
HETATM   70  C3' BRU D   3      38.795  32.487  23.519  1.00 13.22     0.161 C 
HETATM   71  C4' BRU D   3      37.680  31.447  23.417  1.00 14.89     0.175 C 
HETATM   72  O4' BRU D   3      36.949  31.743  22.211  1.00 16.05    -0.333 OA
HETATM   73  C1' BRU D   3      37.880  32.304  21.293  1.00 15.34     0.211 C 
HETATM   74  C2' BRU D   3      38.736  33.227  22.174  1.00 12.90     0.087 C 
BRANCH  71  75
HETATM   75  C5' BRU D   3      36.755  31.254  24.591  1.00 17.61     0.187 C 
BRANCH  75  76
HETATM   76  O5' BRU D   3      35.753  32.252  24.627  1.00 15.66    -0.268 OA
BRANCH  76  77
HETATM   77  P   BRU D   3      34.232  31.767  24.692  1.00 16.77     0.410 P 
HETATM   78  OP1 BRU D   3      33.799  31.557  23.280  1.00 18.57    -0.624 OA
HETATM   79  OP2 BRU D   3      34.111  30.673  25.696  1.00 18.18    -0.624 OA
BRANCH  77  80
ATOM     80  O3'  DG D   2      33.432  33.029  25.239  1.00 17.32    -0.271 OA
BRANCH  80  81
ATOM     81  C3'  DG D   2      32.978  33.083  26.582  1.00 15.47     0.161 C 
ATOM     82  C2'  DG D   2      33.043  34.529  27.095  1.00 16.87     0.087 C 
ATOM     83  C1'  DG D   2      31.819  35.159  26.434  1.00 16.11     0.210 C 
ATOM     84  O4'  DG D   2      30.854  34.104  26.330  1.00 18.37    -0.333 OA
ATOM     85  C4'  DG D   2      31.476  32.810  26.488  1.00 18.34     0.175 C 
BRANCH  83  86
ATOM     86  N9   DG D   2      31.179  36.235  27.189  1.00 16.03    -0.272 N 
ATOM     87  C8   DG D   2      31.013  36.324  28.550  1.00 14.57     0.182 A 
ATOM     88  N7   DG D   2      30.308  37.366  28.923  1.00 16.34    -0.217 NA
ATOM     89  C5   DG D   2      29.994  38.010  27.714  1.00 13.99     0.175 A 
ATOM     90  C6   DG D   2      29.224  39.187  27.471  1.00 12.33     0.302 A 
ATOM     91  C4   DG D   2      30.559  37.342  26.641  1.00 12.94     0.172 A 
ATOM     92  O6   DG D   2      28.655  39.879  28.297  1.00 15.71    -0.263 OA
ATOM     93  N1   DG D   2      29.153  39.496  26.131  1.00 12.85    -0.174 NA
ATOM     94  C2   DG D   2      29.759  38.780  25.116  1.00 12.30     0.242 A 
ATOM     95  N2   DG D   2      29.604  39.258  23.824  1.00 15.13    -0.059 NA
ATOM     96  N3   DG D   2      30.497  37.660  25.329  1.00 14.89    -0.195 NA
ENDBRANCH  83  86
BRANCH  85  97
ATOM     97  C5'  DG D   2      30.867  32.073  27.657  1.00 20.11     0.187 C 
BRANCH  97  98
ATOM     98  O5'  DG D   2      31.724  31.023  28.092  1.00 21.44    -0.268 OA
BRANCH  98  99
ATOM     99  P    DG D   2      31.437  30.249  29.444  1.00 23.19     0.410 P 
ATOM    100  OP1  DG D   2      30.391  31.066  30.123  1.00 25.33    -0.624 OA
ATOM    101  OP2  DG D   2      31.237  28.805  29.255  1.00 23.21    -0.624 OA
BRANCH  99 102
ATOM    102  O3'  DC D   1      32.780  30.398  30.302  1.00 26.59    -0.271 OA
BRANCH 102 103
ATOM    103  C3'  DC D   1      32.913  31.519  31.165  1.00 27.88     0.161 C 
ATOM    104  C2'  DC D   1      33.942  31.170  32.222  1.00 26.06     0.087 C 
ATOM    105  C1'  DC D   1      35.213  31.317  31.418  1.00 24.51     0.211 C 
ATOM    106  O4'  DC D   1      34.995  32.451  30.563  1.00 29.50    -0.333 OA
ATOM    107  C4'  DC D   1      33.583  32.632  30.369  1.00 29.48     0.178 C 
BRANCH 105 108
ATOM    108  N1   DC D   1      36.462  31.568  32.146  1.00 21.38    -0.256 N 
ATOM    109  C6   DC D   1      36.624  32.674  32.935  1.00 19.62     0.085 A 
ATOM    110  C5   DC D   1      37.809  32.935  33.523  1.00 19.43     0.060 A 
ATOM    111  C4   DC D   1      38.860  31.986  33.322  1.00 17.00     0.190 A 
ATOM    112  N4   DC D   1      40.053  32.167  33.889  1.00 18.52    -0.127 N 
ATOM    113  N3   DC D   1      38.689  30.887  32.571  1.00 17.32    -0.171 NA
ATOM    114  C2   DC D   1      37.509  30.667  31.974  1.00 18.49     0.353 A 
ATOM    115  O2   DC D   1      37.330  29.674  31.262  1.00 18.51    -0.244 OA
ENDBRANCH 105 108
BRANCH 107 116
ATOM    116  C5'  DC D   1      33.174  34.040  30.741  1.00 31.78     0.214 C 
ATOM    117  O5'  DC D   1      34.324  34.825  31.067  1.00 34.90    -0.218 OA
ENDBRANCH 107 116
ENDBRANCH 102 103
ENDBRANCH  99 102
ENDBRANCH  98  99
ENDBRANCH  97  98
ENDBRANCH  85  97
ENDBRANCH  80  81
ENDBRANCH  77  80
ENDBRANCH  76  77
ENDBRANCH  75  76
ENDBRANCH  71  75
BRANCH  73 118
HETATM  118  N1  BRU D   3      37.118  33.008  20.259  1.00 13.25    -0.255 N 
HETATM  119  C2  BRU D   3      37.507  32.921  18.904  1.00 11.90     0.354 A 
HETATM  120  O2  BRU D   3      38.488  32.302  18.538  1.00 16.11    -0.244 OA
HETATM  121  N3  BRU D   3      36.715  33.580  18.017  1.00 12.15    -0.153 NA
HETATM  122  C4  BRU D   3      35.604  34.269  18.309  1.00 12.48     0.291 A 
HETATM  123  O4  BRU D   3      34.946  34.883  17.445  1.00 16.38    -0.264 OA
HETATM  124  C5  BRU D   3      35.331  34.302  19.704  1.00 14.67     0.110 A 
HETATM  125  C6  BRU D   3      36.070  33.701  20.591  1.00 13.17     0.094 A 
HETATM  126 BR   BRU D   3      33.670  35.426  20.345  1.00 24.07    -0.043 Br
ENDBRANCH  73 118
ENDBRANCH  69  70
ENDBRANCH  66  69
ENDBRANCH  65  66
ENDBRANCH  64  65
ENDBRANCH  60  64
BRANCH  62 127
ATOM    127  N1   DT D   4      36.603  27.029  27.836  1.00 13.98    -0.256 N 
ATOM    128  C2   DT D   4      36.071  28.239  28.183  1.00 13.56     0.354 A 
ATOM    129  O2   DT D   4      36.436  29.277  27.634  1.00 16.57    -0.244 OA
ATOM    130  N3   DT D   4      35.090  28.216  29.166  1.00 12.35    -0.153 NA
ATOM    131  C4   DT D   4      34.610  27.080  29.811  1.00 11.46     0.280 A 
ATOM    132  O4   DT D   4      33.687  27.151  30.639  1.00 13.76    -0.265 OA
ATOM    133  C5   DT D   4      35.275  25.848  29.431  1.00 12.51     0.053 A 
ATOM    134  C7   DT D   4      34.888  24.582  30.121  1.00 14.43     0.038 C 
ATOM    135  C6   DT D   4      36.208  25.872  28.477  1.00 14.14     0.083 A 
ENDBRANCH  62 127
ENDBRANCH  58  59
ENDBRANCH  55  58
ENDBRANCH  54  55
ENDBRANCH  53  54
ENDBRANCH  49  53
BRANCH  51 136
ATOM    136  N9   DA D   5      34.396  26.732  22.156  1.00 14.16    -0.272 N 
ATOM    137  C4   DA D   5      34.321  26.034  23.342  1.00 14.21     0.170 A 
ATOM    138  C5   DA D   5      33.749  26.913  24.250  1.00 12.40     0.155 A 
ATOM    139  N3   DA D   5      34.725  24.783  23.594  1.00 13.46    -0.205 NA
ATOM    140  C6   DA D   5      33.558  26.463  25.555  1.00 12.04     0.206 A 
ATOM    141  N7   DA D   5      33.451  28.103  23.638  1.00 14.47    -0.219 NA
ATOM    142  N6   DA D   5      33.005  27.236  26.510  1.00 12.46    -0.125 N 
ATOM    143  N1   DA D   5      33.947  25.201  25.854  1.00 13.98    -0.202 NA
ATOM    144  C2   DA D   5      34.506  24.464  24.873  1.00 14.25     0.202 A 
ATOM    145  C8   DA D   5      33.818  27.935  22.388  1.00 14.09     0.182 A 
ENDBRANCH  51 136
ENDBRANCH  47  48
ENDBRANCH  44  47
ENDBRANCH  43  44
ENDBRANCH  42  43
ENDBRANCH  38  42
BRANCH  40 146
ATOM    146  N1   DC D   6      42.077  29.956  19.817  1.00 11.89    -0.256 N 
ATOM    147  C2   DC D   6      42.030  31.044  20.706  1.00 11.45     0.353 A 
ATOM    148  O2   DC D   6      41.239  31.933  20.475  1.00 12.57    -0.244 OA
ATOM    149  N3   DC D   6      42.855  31.068  21.787  1.00 11.17    -0.171 NA
ATOM    150  C4   DC D   6      43.666  30.042  22.022  1.00 11.08     0.190 A 
ATOM    151  N4   DC D   6      44.490  30.085  23.083  1.00 10.70    -0.127 N 
ATOM    152  C5   DC D   6      43.686  28.886  21.156  1.00 10.83     0.060 A 
ATOM    153  C6   DC D   6      42.881  28.897  20.079  1.00 11.79     0.085 A 
ENDBRANCH  40 146
ENDBRANCH  36  37
ENDBRANCH  33  36
ENDBRANCH  32  33
ENDBRANCH  31  32
ENDBRANCH  22  31
ENDBRANCH  17  18
ENDBRANCH  14  17
ENDBRANCH  13  14
ENDBRANCH  12  13
ENDBRANCH   8  12
BRANCH  10 154
ATOM    154  N9   DA D   8      46.969  38.615  17.678  1.00 10.83    -0.272 N 
ATOM    155  C4   DA D   8      47.420  37.634  18.526  1.00  9.99     0.170 A 
ATOM    156  N3   DA D   8      46.676  36.681  19.150  1.00 10.21    -0.205 NA
ATOM    157  C5   DA D   8      48.788  37.789  18.580  1.00 10.31     0.155 A 
ATOM    158  C2   DA D   8      47.437  35.880  19.854  1.00 10.39     0.202 A 
ATOM    159  N1   DA D   8      48.779  35.914  20.011  1.00 11.14    -0.202 NA
ATOM    160  C6   DA D   8      49.495  36.847  19.342  1.00 10.09     0.206 A 
ATOM    161  N6   DA D   8      50.816  36.784  19.420  1.00 11.37    -0.125 N 
ATOM    162  N7   DA D   8      49.188  38.892  17.804  1.00 10.47    -0.219 NA
ATOM    163  C8   DA D   8      48.058  39.348  17.308  1.00 11.39     0.182 A 
ENDBRANCH  10 154
ENDBRANCH   6   7
ENDBRANCH   3   6
ENDBRANCH   2   3
ENDBRANCH   1   2
BRANCH   1 164
HETATM  164  C4' BRU D   9      43.111  45.289  13.586  1.00 14.07     0.175 C 
HETATM  165  O4' BRU D   9      41.974  45.466  12.689  1.00 13.32    -0.333 OA
HETATM  166  C1' BRU D   9      40.817  45.792  13.455  1.00 13.84     0.211 C 
HETATM  167  C2' BRU D   9      41.147  45.557  14.914  1.00 12.11     0.087 C 
HETATM  168  C3' BRU D   9      42.485  44.833  14.888  1.00 15.00     0.161 C 
BRANCH 166 169
HETATM  169  N1  BRU D   9      39.755  44.850  13.089  1.00 13.67    -0.255 N 
HETATM  170  C2  BRU D   9      38.681  45.322  12.423  1.00 11.22     0.354 A 
HETATM  171  O2  BRU D   9      38.571  46.500  12.167  1.00 13.50    -0.244 OA
HETATM  172  N3  BRU D   9      37.738  44.374  12.050  1.00 11.85    -0.153 NA
HETATM  173  C4  BRU D   9      37.822  43.064  12.309  1.00 10.30     0.291 A 
HETATM  174  O4  BRU D   9      36.973  42.256  11.847  1.00 12.93    -0.264 OA
HETATM  175  C5  BRU D   9      38.992  42.710  13.067  1.00 12.08     0.110 A 
HETATM  176  C6  BRU D   9      39.881  43.576  13.418  1.00 13.06     0.094 A 
HETATM  177 BR   BRU D   9      39.056  40.671  13.438  1.00 15.13    -0.043 Br
ENDBRANCH 166 169
BRANCH 168 178
HETATM  178  O3' BRU D   9      43.276  45.223  16.002  1.00 13.15    -0.271 OA
BRANCH 178 179
ATOM    179  P    DG D  10      43.227  44.319  17.297  1.00 14.52     0.410 P 
ATOM    180  OP2  DG D  10      42.192  44.773  18.284  1.00 14.92    -0.624 OA
ATOM    181  OP1  DG D  10      43.208  42.893  16.818  1.00 16.08    -0.624 OA
BRANCH 179 182
ATOM    182  O5'  DG D  10      44.636  44.597  18.035  1.00 14.63    -0.268 OA
BRANCH 182 183
ATOM    183  C5'  DG D  10      44.908  44.092  19.331  1.00 14.28     0.187 C 
BRANCH 183 184
ATOM    184  C4'  DG D  10      45.588  42.750  19.218  1.00 14.53     0.175 C 
ATOM    185  C3'  DG D  10      45.833  42.022  20.530  1.00 16.36     0.161 C 
ATOM    186  C2'  DG D  10      47.265  42.421  20.877  1.00 15.07     0.087 C 
ATOM    187  C1'  DG D  10      47.881  42.419  19.496  1.00 13.41     0.210 C 
ATOM    188  O4'  DG D  10      46.895  42.940  18.618  1.00 13.85    -0.333 OA
BRANCH 185 189
ATOM    189  O3'  DG D  10      45.714  40.639  20.191  1.00 20.48    -0.271 OA
BRANCH 189 190
ATOM    190  P    DG D  11      45.463  39.534  21.333  1.00 20.71     0.410 P 
ATOM    191  OP2  DG D  11      44.391  38.564  21.017  1.00 22.10    -0.624 OA
ATOM    192  OP1  DG D  11      46.810  39.064  21.749  1.00 24.32    -0.624 OA
BRANCH 190 193
ATOM    193  O5'  DG D  11      44.908  40.396  22.539  1.00 19.33    -0.268 OA
BRANCH 193 194
ATOM    194  C5'  DG D  11      44.390  39.737  23.688  1.00 18.66     0.187 C 
BRANCH 194 195
ATOM    195  C4'  DG D  11      42.914  40.026  23.795  1.00 18.71     0.175 C 
ATOM    196  C3'  DG D  11      42.605  41.506  23.882  1.00 19.69     0.161 C 
ATOM    197  C2'  DG D  11      42.572  41.757  25.380  1.00 18.26     0.087 C 
ATOM    198  C1'  DG D  11      41.914  40.473  25.870  1.00 15.98     0.210 C 
ATOM    199  O4'  DG D  11      42.296  39.447  24.968  1.00 17.85    -0.333 OA
BRANCH 196 200
ATOM    200  O3'  DG D  11      41.298  41.629  23.343  1.00 24.65    -0.271 OA
BRANCH 200 201
ATOM    201  P    DT D  12      41.037  42.646  22.183  1.00 28.19     0.410 P 
ATOM    202  OP2  DT D  12      40.540  43.966  22.632  1.00 27.85    -0.624 OA
ATOM    203  OP1  DT D  12      42.269  42.525  21.351  1.00 29.91    -0.624 OA
BRANCH 201 204
ATOM    204  O5'  DT D  12      39.800  42.033  21.408  1.00 28.66    -0.268 OA
BRANCH 204 205
ATOM    205  C5'  DT D  12      39.255  42.796  20.379  1.00 29.00     0.187 C 
BRANCH 205 206
ATOM    206  C4'  DT D  12      39.032  41.957  19.163  1.00 28.07     0.175 C 
ATOM    207  C3'  DT D  12      40.223  41.732  18.253  1.00 29.44     0.161 C 
ATOM    208  C2'  DT D  12      39.790  42.353  16.932  1.00 29.37     0.087 C 
ATOM    209  C1'  DT D  12      38.258  42.270  17.003  1.00 27.26     0.211 C 
ATOM    210  O4'  DT D  12      37.953  42.452  18.355  1.00 26.37    -0.333 OA
BRANCH 207 211
ATOM    211  O3'  DT D  12      40.255  40.330  18.222  1.00 31.26    -0.271 OA
BRANCH 211 212
ATOM    212  P    DA D  13      41.628  39.540  18.331  1.00 34.05     0.410 P 
ATOM    213  OP2  DA D  13      41.944  38.923  17.008  1.00 31.89    -0.624 OA
ATOM    214  OP1  DA D  13      42.532  40.537  18.923  1.00 33.32    -0.624 OA
BRANCH 212 215
ATOM    215  O5'  DA D  13      41.265  38.478  19.447  1.00 31.02    -0.268 OA
BRANCH 215 216
ATOM    216  C5'  DA D  13      40.855  38.914  20.742  1.00 27.53     0.187 C 
BRANCH 216 217
ATOM    217  C4'  DA D  13      39.501  38.336  21.071  1.00 25.33     0.175 C 
ATOM    218  O4'  DA D  13      38.651  38.297  19.897  1.00 22.92    -0.333 OA
ATOM    219  C1'  DA D  13      38.221  36.960  19.625  1.00 20.98     0.210 C 
ATOM    220  C2'  DA D  13      39.181  36.046  20.401  1.00 23.30     0.087 C 
ATOM    221  C3'  DA D  13      39.545  36.900  21.607  1.00 26.45     0.161 C 
BRANCH 219 222
ATOM    222  N9   DA D  13      38.267  36.798  18.179  1.00 17.31    -0.272 N 
ATOM    223  C8   DA D  13      39.231  36.183  17.460  1.00 17.58     0.182 A 
ATOM    224  N7   DA D  13      39.088  36.289  16.166  1.00 17.72    -0.219 NA
ATOM    225  C5   DA D  13      37.918  36.986  16.016  1.00 14.33     0.155 A 
ATOM    226  C6   DA D  13      37.194  37.417  14.893  1.00 14.45     0.206 A 
ATOM    227  C4   DA D  13      37.382  37.305  17.259  1.00 15.76     0.170 A 
ATOM    228  N6   DA D  13      37.587  37.231  13.601  1.00 15.52    -0.125 N 
ATOM    229  N1   DA D  13      36.050  38.061  15.123  1.00 14.59    -0.202 NA
ATOM    230  C2   DA D  13      35.664  38.309  16.381  1.00 15.74     0.202 A 
ATOM    231  N3   DA D  13      36.269  37.989  17.515  1.00 15.60    -0.205 NA
ENDBRANCH 219 222
BRANCH 221 232
ATOM    232  O3'  DA D  13      38.554  36.762  22.605  1.00 30.43    -0.271 OA
BRANCH 232 233
ATOM    233  P    DA D  14      39.002  36.602  24.126  1.00 32.07     0.410 P 
ATOM    234  OP2  DA D  14      38.046  35.743  24.806  1.00 33.16    -0.624 OA
ATOM    235  OP1  DA D  14      40.444  36.242  24.080  1.00 33.96    -0.624 OA
BRANCH 233 236
ATOM    236  O5'  DA D  14      38.904  38.075  24.662  1.00 31.87    -0.268 OA
BRANCH 236 237
ATOM    237  C5'  DA D  14      38.533  38.284  26.015  1.00 30.81     0.187 C 
BRANCH 237 238
ATOM    238  C4'  DA D  14      37.338  39.195  26.065  1.00 31.39     0.175 C 
ATOM    239  O4'  DA D  14      37.091  39.761  24.752  1.00 30.66    -0.333 OA
ATOM    240  C1'  DA D  14      35.738  39.520  24.414  1.00 28.20     0.210 C 
ATOM    241  C2'  DA D  14      35.373  38.229  25.118  1.00 29.16     0.087 C 
ATOM    242  C3'  DA D  14      36.052  38.471  26.452  1.00 31.09     0.161 C 
BRANCH 240 243
ATOM    243  N9   DA D  14      35.621  39.517  22.970  1.00 24.41    -0.272 N 
ATOM    244  C4   DA D  14      35.468  40.670  22.252  1.00 21.62     0.170 A 
ATOM    245  N3   DA D  14      35.467  41.930  22.743  1.00 18.94    -0.205 NA
ATOM    246  C5   DA D  14      35.276  40.273  20.956  1.00 22.12     0.155 A 
ATOM    247  C2   DA D  14      35.205  42.810  21.754  1.00 18.83     0.202 A 
ATOM    248  N1   DA D  14      35.011  42.557  20.477  1.00 18.79    -0.202 NA
ATOM    249  C6   DA D  14      35.058  41.267  20.033  1.00 19.52     0.206 A 
ATOM    250  N6   DA D  14      34.907  41.011  18.749  1.00 21.07    -0.125 N 
ATOM    251  N7   DA D  14      35.339  38.884  20.841  1.00 24.53    -0.219 NA
ATOM    252  C8   DA D  14      35.574  38.489  22.069  1.00 24.70     0.182 A 
ENDBRANCH 240 243
BRANCH 242 253
ATOM    253  O3'  DA D  14      35.311  39.393  27.219  1.00 31.14    -0.271 OA
BRANCH 253 254
ATOM    254  P    DC D  15      34.322  38.877  28.376  1.00 30.59     0.410 P 
ATOM    255  OP1  DC D  15      34.461  37.393  28.395  1.00 31.75    -0.624 OA
ATOM    256  OP2  DC D  15      32.970  39.509  28.299  1.00 29.87    -0.624 OA
BRANCH 254 257
ATOM    257  O5'  DC D  15      35.115  39.437  29.650  1.00 30.76    -0.268 OA
BRANCH 257 258
ATOM    258  C5'  DC D  15      35.313  38.586  30.811  1.00 28.28     0.187 C 
BRANCH 258 259
ATOM    259  C4'  DC D  15      36.752  38.633  31.291  1.00 28.15     0.175 C 
ATOM    260  O4'  DC D  15      37.286  37.306  31.500  1.00 23.18    -0.333 OA
ATOM    261  C1'  DC D  15      38.469  37.106  30.726  1.00 22.58     0.211 C 
ATOM    262  C2'  DC D  15      38.486  38.216  29.687  1.00 24.52     0.087 C 
ATOM    263  C3'  DC D  15      37.740  39.342  30.376  1.00 28.37     0.161 C 
BRANCH 261 264
ATOM    264  N1   DC D  15      38.365  35.782  30.107  1.00 18.64    -0.256 N 
ATOM    265  C6   DC D  15      37.468  35.552  29.099  1.00 16.47     0.085 A 
ATOM    266  C5   DC D  15      37.303  34.338  28.582  1.00 15.01     0.060 A 
ATOM    267  C4   DC D  15      38.100  33.272  29.145  1.00 13.33     0.190 A 
ATOM    268  N3   DC D  15      39.029  33.511  30.067  1.00 13.89    -0.171 NA
ATOM    269  N4   DC D  15      37.897  32.027  28.759  1.00 15.28    -0.127 N 
ATOM    270  C2   DC D  15      39.186  34.734  30.578  1.00 18.12     0.353 A 
ATOM    271  O2   DC D  15      40.017  34.989  31.479  1.00 20.47    -0.244 OA
ENDBRANCH 261 264
BRANCH 263 272
ATOM    272  O3'  DC D  15      38.660  40.097  31.150  1.00 31.34    -0.271 OA
BRANCH 272 273
ATOM    273  P    DG D  16      39.054  41.556  30.669  1.00 32.78     0.410 P 
ATOM    274  OP1  DG D  16      40.537  41.583  30.511  1.00 34.59    -0.624 OA
ATOM    275  OP2  DG D  16      38.387  42.510  31.591  1.00 31.45    -0.624 OA
BRANCH 273 276
ATOM    276  O5'  DG D  16      38.354  41.666  29.252  1.00 31.83    -0.268 OA
BRANCH 276 277
ATOM    277  C5'  DG D  16      39.124  41.839  28.073  1.00 31.48     0.187 C 
BRANCH 277 278
ATOM    278  C4'  DG D  16      38.339  42.655  27.078  1.00 29.56     0.178 C 
ATOM    279  C3'  DG D  16      39.078  42.951  25.766  1.00 29.50     0.186 C 
ATOM    280  C2'  DG D  16      39.526  44.394  25.949  1.00 28.21     0.090 C 
ATOM    281  O3'  DG D  16      38.124  42.923  24.680  1.00 31.52    -0.221 OA
ATOM    282  C1'  DG D  16      38.340  44.942  26.696  1.00 24.75     0.210 C 
ATOM    283  O4'  DG D  16      38.024  43.946  27.643  1.00 27.49    -0.333 OA
BRANCH 282 284
ATOM    284  N9   DG D  16      38.565  46.181  27.419  1.00 21.33    -0.271 N 
ATOM    285  C4   DG D  16      37.659  47.191  27.568  1.00 19.88     0.188 A 
ATOM    286  N3   DG D  16      36.381  47.189  27.098  1.00 18.33    -0.038 NA
ATOM    287  C5   DG D  16      38.320  48.173  28.270  1.00 17.85     0.176 A 
ATOM    288  C2   DG D  16      35.751  48.294  27.378  1.00 15.82     0.773 A 
ATOM    289  N1   DG D  16      36.340  49.353  28.057  1.00 16.33    -0.016 NA
ATOM    290  N2   DG D  16      34.439  48.448  27.013  1.00 16.23     0.062 N 
ATOM    291  C6   DG D  16      37.640  49.374  28.552  1.00 15.94     0.316 A 
ATOM    292  O6   DG D  16      38.050  50.404  29.155  1.00 18.70    -0.263 OA
ATOM    293  N7   DG D  16      39.604  47.755  28.600  1.00 18.48    -0.217 NA
ATOM    294  C8   DG D  16      39.708  46.573  28.063  1.00 19.50     0.182 A 
ENDBRANCH 282 284
ENDBRANCH 277 278
ENDBRANCH 276 277
ENDBRANCH 273 276
ENDBRANCH 272 273
ENDBRANCH 263 272
ENDBRANCH 258 259
ENDBRANCH 257 258
ENDBRANCH 254 257
ENDBRANCH 253 254
ENDBRANCH 242 253
ENDBRANCH 237 238
ENDBRANCH 236 237
ENDBRANCH 233 236
ENDBRANCH 232 233
ENDBRANCH 221 232
ENDBRANCH 216 217
ENDBRANCH 215 216
ENDBRANCH 212 215
ENDBRANCH 211 212
ENDBRANCH 207 211
BRANCH 209 295
ATOM    295  N1   DT D  12      37.501  43.304  16.287  1.00 25.54    -0.256 N 
ATOM    296  C6   DT D  12      37.891  44.627  16.318  1.00 22.97     0.083 A 
ATOM    297  C5   DT D  12      37.191  45.622  15.739  1.00 22.23     0.053 A 
ATOM    298  C4   DT D  12      35.979  45.279  15.049  1.00 20.03     0.280 A 
ATOM    299  C7   DT D  12      37.602  47.059  15.757  1.00 23.27     0.038 C 
ATOM    300  O4   DT D  12      35.255  46.115  14.514  1.00 18.53    -0.265 OA
ATOM    301  N3   DT D  12      35.659  43.921  15.022  1.00 19.51    -0.153 NA
ATOM    302  C2   DT D  12      36.358  42.902  15.611  1.00 22.25     0.354 A 
ATOM    303  O2   DT D  12      36.004  41.730  15.552  1.00 24.24    -0.244 OA
ENDBRANCH 209 295
ENDBRANCH 205 206
ENDBRANCH 204 205
ENDBRANCH 201 204
ENDBRANCH 200 201
ENDBRANCH 196 200
BRANCH 198 304
ATOM    304  N9   DG D  11      42.315  40.026  27.200  1.00 15.12    -0.271 N 
ATOM    305  C8   DG D  11      43.035  40.730  28.136  1.00 13.13     0.182 A 
ATOM    306  N7   DG D  11      43.334  40.020  29.192  1.00 13.46    -0.217 NA
ATOM    307  C5   DG D  11      42.779  38.770  28.935  1.00 11.37     0.176 A 
ATOM    308  C6   DG D  11      42.819  37.600  29.711  1.00 10.16     0.316 A 
ATOM    309  C4   DG D  11      42.120  38.759  27.729  1.00 12.33     0.188 A 
ATOM    310  O6   DG D  11      43.412  37.421  30.753  1.00 10.86    -0.263 OA
ATOM    311  N1   DG D  11      42.080  36.567  29.114  1.00 10.07    -0.016 NA
ATOM    312  C2   DG D  11      41.422  36.661  27.889  1.00 11.41     0.773 A 
ATOM    313  N2   DG D  11      40.711  35.575  27.463  1.00 10.83     0.062 N 
ATOM    314  N3   DG D  11      41.442  37.748  27.139  1.00 11.83    -0.038 NA
ENDBRANCH 198 304
ENDBRANCH 194 195
ENDBRANCH 193 194
ENDBRANCH 190 193
ENDBRANCH 189 190
ENDBRANCH 185 189
BRANCH 187 315
ATOM    315  N9   DG D  10      49.060  43.269  19.414  1.00 11.23    -0.271 N 
ATOM    316  C8   DG D  10      49.109  44.651  19.375  1.00 12.20     0.182 A 
ATOM    317  N7   DG D  10      50.341  45.114  19.384  1.00 12.66    -0.217 NA
ATOM    318  C5   DG D  10      51.134  43.971  19.394  1.00 10.47     0.176 A 
ATOM    319  C4   DG D  10      50.361  42.832  19.407  1.00 10.52     0.188 A 
ATOM    320  C6   DG D  10      52.573  43.818  19.384  1.00 11.39     0.316 A 
ATOM    321  N3   DG D  10      50.765  41.548  19.408  1.00 10.98    -0.038 NA
ATOM    322  C2   DG D  10      52.088  41.437  19.450  1.00  8.78     0.773 A 
ATOM    323  N1   DG D  10      52.953  42.498  19.428  1.00  9.45    -0.016 NA
ATOM    324  N2   DG D  10      52.659  40.240  19.537  1.00 10.60     0.062 N 
ATOM    325  O6   DG D  10      53.460  44.702  19.321  1.00 10.46    -0.263 OA
ENDBRANCH 187 315
ENDBRANCH 183 184
ENDBRANCH 182 183
ENDBRANCH 179 182
ENDBRANCH 178 179
ENDBRANCH 168 178
ENDBRANCH   1 164
TORSDOF 92
ENDMDL
