MODEL 1
REMARK VINA RESULT:      -0.6      0.000      0.000
REMARK WARNING: 32 MAX_TORS EXCEEDED!!!
REMARK  92 active torsions:
REMARK  status: ('A' for Active; 'I' for Inactive)
REMARK    1  A    between atoms: C5'_1  and  C4'_3 
REMARK    2  A    between atoms: C3'_5  and  O3'_6 
REMARK    3  A    between atoms: O3'_6  and  P_17 
REMARK    4  A    between atoms: C1'_8  and  N1_9 
REMARK    5  A    between atoms: P_17  and  O5'_19 
REMARK    6  A    between atoms: C5'_18  and  O5'_19 
REMARK    7  A    between atoms: C5'_18  and  C4'_20 
REMARK    8  A    between atoms: C3'_22  and  O3'_23 
REMARK    9  A    between atoms: O3'_23  and  P_39 
REMARK   10  A    between atoms: C1'_25  and  N9_36 
REMARK   11  A    between atoms: P_39  and  O5'_41 
REMARK   12  A    between atoms: C5'_40  and  O5'_41 
REMARK   13  A    between atoms: C5'_40  and  C4'_42 
REMARK   14  A    between atoms: C3'_44  and  O3'_45 
REMARK   15  A    between atoms: O3'_45  and  P_59 
REMARK   16  A    between atoms: C1'_47  and  N1_48 
REMARK   17  A    between atoms: P_59  and  O5'_61 
REMARK   18  A    between atoms: C5'_60  and  C4'_62 
REMARK   19  A    between atoms: C5'_60  and  O5'_61 
REMARK   20  A    between atoms: C3'_64  and  O3'_65 
REMARK   21  A    between atoms: O3'_65  and  P_79 
REMARK   22  A    between atoms: C1'_67  and  N1_68 
REMARK   23  A    between atoms: P_79  and  O5'_81 
REMARK   24  A    between atoms: C5'_80  and  C4'_82 
REMARK   25  A    between atoms: C5'_80  and  O5'_81 
REMARK   26  A    between atoms: C3'_84  and  O3'_85 
REMARK   27  A    between atoms: O3'_85  and  P_100 
REMARK   28  A    between atoms: C1'_87  and  N9_97 
REMARK   29  A    between atoms: P_100  and  O5'_102 
REMARK   30  A    between atoms: C5'_101  and  C4'_103 
REMARK   31  A    between atoms: C5'_101  and  O5'_102 
REMARK   32  A    between atoms: C3'_105  and  O3'_106 
REMARK   33  A    between atoms: O3'_106  and  P_119 
REMARK   34  A    between atoms: C1'_108  and  N1_109 
REMARK   35  A    between atoms: P_119  and  O5'_121 
REMARK   36  A    between atoms: C5'_120  and  O5'_121 
REMARK   37  A    between atoms: C5'_120  and  C4'_122 
REMARK   38  A    between atoms: C3'_124  and  O3'_125 
REMARK   39  A    between atoms: O3'_125  and  P_138 
REMARK   40  A    between atoms: C1'_127  and  N1_128 
REMARK   41  A    between atoms: P_138  and  O5'_140 
REMARK   42  A    between atoms: C5'_139  and  C4'_141 
REMARK   43  A    between atoms: C5'_139  and  O5'_140 
REMARK   44  A    between atoms: C3'_143  and  O3'_144 
REMARK   45  A    between atoms: O3'_144  and  P_159 
REMARK   46  A    between atoms: C1'_146  and  N9_156 
REMARK   47  A    between atoms: P_159  and  O5'_161 
REMARK   48  A    between atoms: C5'_160  and  O5'_161 
REMARK   49  A    between atoms: C5'_160  and  C4'_162 
REMARK   50  A    between atoms: C3'_164  and  O3'_165 
REMARK   51  A    between atoms: O3'_165  and  P_179 
REMARK   52  A    between atoms: C1'_167  and  N1_168 
REMARK   53  A    between atoms: P_179  and  O5'_181 
REMARK   54  A    between atoms: C5'_180  and  C4'_182 
REMARK   55  A    between atoms: C5'_180  and  O5'_181 
REMARK   56  A    between atoms: C3'_184  and  O3'_185 
REMARK   57  A    between atoms: O3'_185  and  P_201 
REMARK   58  A    between atoms: C1'_187  and  N9_198 
REMARK   59  A    between atoms: P_201  and  O5'_203 
REMARK   60  A    between atoms: C5'_202  and  O5'_203 
REMARK   61  A    between atoms: C5'_202  and  C4'_204 
REMARK   62  A    between atoms: C3'_206  and  O3'_207 
REMARK   63  A    between atoms: O3'_207  and  P_223 
REMARK   64  A    between atoms: C1'_209  and  N9_220 
REMARK   65  A    between atoms: P_223  and  O5'_225 
REMARK   66  A    between atoms: C5'_224  and  O5'_225 
REMARK   67  A    between atoms: C5'_224  and  C4'_226 
REMARK   68  A    between atoms: C3'_228  and  O3'_229 
REMARK   69  A    between atoms: O3'_229  and  P_243 
REMARK   70  A    between atoms: C1'_231  and  N1_232 
REMARK   71  A    between atoms: P_243  and  O5'_245 
REMARK   72  A    between atoms: C5'_244  and  C4'_246 
REMARK   73  A    between atoms: C5'_244  and  O5'_245 
REMARK   74  A    between atoms: C3'_248  and  O3'_249 
REMARK   75  A    between atoms: O3'_249  and  P_264 
REMARK   76  A    between atoms: C1'_251  and  N9_261 
REMARK   77  A    between atoms: P_264  and  O5'_266 
REMARK   78  A    between atoms: C5'_265  and  C4'_267 
REMARK   79  A    between atoms: C5'_265  and  O5'_266 
REMARK   80  A    between atoms: C3'_269  and  O3'_270 
REMARK   81  A    between atoms: O3'_270  and  P_285 
REMARK   82  A    between atoms: C1'_272  and  N9_282 
REMARK   83  A    between atoms: P_285  and  O5'_287 
REMARK   84  A    between atoms: C5'_286  and  O5'_287 
REMARK   85  A    between atoms: C5'_286  and  C4'_288 
REMARK   86  A    between atoms: C3'_290  and  O3'_291 
REMARK   87  A    between atoms: O3'_291  and  P_304 
REMARK   88  A    between atoms: C1'_293  and  N1_294 
REMARK   89  A    between atoms: P_304  and  O5'_306 
REMARK   90  A    between atoms: C5'_305  and  C4'_307 
REMARK   91  A    between atoms: C5'_305  and  O5'_306 
REMARK   92  A    between atoms: C1'_312  and  N9_323 
ROOT
HETATM    1  C5' BRU D   9      44.868  42.251  12.821  1.00 14.48     0.187 C 
ENDROOT
BRANCH   1   2
HETATM    2  O5' BRU D   9      45.300  41.095  13.513  1.00 12.82    -0.268 OA
BRANCH   2   3
HETATM    3  P   BRU D   9      46.843  40.825  13.733  1.00 11.11     0.410 P 
HETATM    4  OP1 BRU D   9      47.646  41.515  12.658  1.00 14.53    -0.624 OA
HETATM    5  OP2 BRU D   9      47.077  41.172  15.161  1.00 12.75    -0.624 OA
BRANCH   3   6
ATOM      6  O3'  DA D   8      46.994  39.287  13.385  1.00 11.43    -0.271 OA
BRANCH   6   7
ATOM      7  C3'  DA D   8      45.891  38.428  13.599  1.00 10.57     0.161 C 
ATOM      8  C4'  DA D   8      46.271  37.378  14.639  1.00 11.52     0.175 C 
ATOM      9  O4'  DA D   8      45.485  36.219  14.315  1.00 11.40    -0.333 OA
ATOM     10  C1'  DA D   8      45.069  36.272  12.940  1.00 11.23     0.210 C 
ATOM     11  C2'  DA D   8      45.591  37.588  12.367  1.00 12.23     0.087 C 
BRANCH   8  12
ATOM     12  C5'  DA D   8      46.017  37.756  16.076  1.00 13.06     0.187 C 
BRANCH  12  13
ATOM     13  O5'  DA D   8      44.902  37.058  16.576  1.00 11.03    -0.268 OA
BRANCH  13  14
ATOM     14  P    DA D   8      44.816  36.737  18.154  1.00 12.25     0.410 P 
ATOM     15  OP2  DA D   8      43.704  37.598  18.695  1.00 11.74    -0.624 OA
ATOM     16  OP1  DA D   8      46.154  36.829  18.756  1.00 15.55    -0.624 OA
BRANCH  14  17
ATOM     17  O3'  DC D   7      44.372  35.201  18.234  1.00 12.10    -0.271 OA
BRANCH  17  18
ATOM     18  C3'  DC D   7      43.024  34.841  17.870  1.00 11.74     0.161 C 
ATOM     19  C2'  DC D   7      42.937  34.045  16.570  1.00 11.76     0.087 C 
ATOM     20  C1'  DC D   7      41.659  33.221  16.760  1.00 12.42     0.211 C 
ATOM     21  O4'  DC D   7      41.466  33.111  18.166  1.00 12.34    -0.333 OA
ATOM     22  C4'  DC D   7      42.497  33.846  18.881  1.00 11.56     0.175 C 
BRANCH  20  23
ATOM     23  N1   DC D   7      40.515  34.001  16.231  1.00 11.09    -0.256 N 
ATOM     24  C2   DC D   7      39.891  33.515  15.080  1.00  9.80     0.353 A 
ATOM     25  O2   DC D   7      40.388  32.496  14.567  1.00 10.91    -0.244 OA
ATOM     26  N3   DC D   7      38.811  34.143  14.556  1.00  9.76    -0.171 NA
ATOM     27  C4   DC D   7      38.369  35.262  15.105  1.00 11.68     0.190 A 
ATOM     28  N4   DC D   7      37.286  35.876  14.549  1.00 10.83    -0.127 N 
ATOM     29  C5   DC D   7      39.003  35.823  16.284  1.00 10.32     0.060 A 
ATOM     30  C6   DC D   7      40.068  35.157  16.808  1.00 11.95     0.085 A 
ENDBRANCH  20  23
BRANCH  22  31
ATOM     31  C5'  DC D   7      41.909  34.449  20.127  1.00 14.18     0.187 C 
BRANCH  31  32
ATOM     32  O5'  DC D   7      40.675  33.777  20.416  1.00 16.43    -0.268 OA
BRANCH  32  33
ATOM     33  P    DC D   7      40.625  32.732  21.611  1.00 18.54     0.410 P 
ATOM     34  OP1  DC D   7      39.235  32.618  22.028  1.00 22.71    -0.624 OA
ATOM     35  OP2  DC D   7      41.399  31.570  21.181  1.00 19.79    -0.624 OA
BRANCH  33  36
ATOM     36  O3'  DC D   6      41.317  33.559  22.811  1.00 17.13    -0.271 OA
BRANCH  36  37
ATOM     37  C3'  DC D   6      42.106  32.897  23.774  1.00 14.94     0.161 C 
ATOM     38  C4'  DC D   6      41.173  32.007  24.586  1.00 15.77     0.175 C 
ATOM     39  O4'  DC D   6      40.822  32.791  25.741  1.00 13.81    -0.333 OA
ATOM     40  C1'  DC D   6      41.323  34.089  25.581  1.00 12.86     0.211 C 
ATOM     41  C2'  DC D   6      42.592  33.918  24.786  1.00 14.65     0.087 C 
BRANCH  38  42
ATOM     42  C5'  DC D   6      41.814  30.709  25.013  1.00 18.13     0.187 C 
BRANCH  42  43
ATOM     43  O5'  DC D   6      41.803  29.793  23.922  1.00 19.27    -0.268 OA
BRANCH  43  44
ATOM     44  P    DC D   6      40.642  28.695  23.799  1.00 19.84     0.410 P 
ATOM     45  OP1  DC D   6      39.612  29.326  22.933  1.00 24.35    -0.624 OA
ATOM     46  OP2  DC D   6      41.253  27.429  23.397  1.00 20.92    -0.624 OA
BRANCH  44  47
ATOM     47  O3'  DA D   5      40.064  28.662  25.283  1.00 19.93    -0.271 OA
BRANCH  47  48
ATOM     48  C3'  DA D   5      40.062  27.447  26.029  1.00 16.89     0.161 C 
ATOM     49  C4'  DA D   5      38.803  27.488  26.890  1.00 17.32     0.175 C 
ATOM     50  O4'  DA D   5      39.211  28.057  28.138  1.00 18.24    -0.333 OA
ATOM     51  C1'  DA D   5      40.639  28.240  28.156  1.00 15.77     0.210 C 
ATOM     52  C2'  DA D   5      41.201  27.377  27.045  1.00 16.34     0.087 C 
BRANCH  49  53
ATOM     53  C5'  DA D   5      38.089  26.165  27.055  1.00 17.61     0.187 C 
BRANCH  53  54
ATOM     54  O5'  DA D   5      36.851  26.199  26.349  1.00 19.33    -0.268 OA
BRANCH  54  55
ATOM     55  P    DA D   5      35.490  26.053  27.137  1.00 20.74     0.410 P 
ATOM     56  OP2  DA D   5      35.235  24.642  27.510  1.00 23.47    -0.624 OA
ATOM     57  OP1  DA D   5      34.466  26.829  26.365  1.00 23.99    -0.624 OA
BRANCH  55  58
ATOM     58  O3'  DT D   4      35.749  26.958  28.449  1.00 19.59    -0.271 OA
BRANCH  58  59
ATOM     59  C3'  DT D   4      34.901  28.084  28.765  1.00 18.10     0.161 C 
ATOM     60  C4'  DT D   4      35.537  29.346  28.160  1.00 15.82     0.175 C 
ATOM     61  O4'  DT D   4      36.159  30.051  29.250  1.00 16.38    -0.333 OA
ATOM     62  C1'  DT D   4      36.105  29.293  30.455  1.00 15.63     0.211 C 
ATOM     63  C2'  DT D   4      34.887  28.373  30.267  1.00 16.56     0.087 C 
BRANCH  60  64
ATOM     64  C5'  DT D   4      34.596  30.314  27.474  1.00 17.08     0.187 C 
BRANCH  64  65
ATOM     65  O5'  DT D   4      34.224  31.370  28.383  1.00 15.07    -0.268 OA
BRANCH  65  66
ATOM     66  P    DT D   4      34.182  32.881  27.870  1.00 15.11     0.410 P 
ATOM     67  OP1  DT D   4      33.786  32.886  26.406  1.00 18.00    -0.624 OA
ATOM     68  OP2  DT D   4      33.345  33.615  28.865  1.00 17.03    -0.624 OA
BRANCH  66  69
HETATM   69  O3' BRU D   3      35.691  33.291  27.890  1.00 15.24    -0.271 OA
BRANCH  69  70
HETATM   70  C3' BRU D   3      36.202  34.227  28.845  1.00 13.22     0.161 C 
HETATM   71  C4' BRU D   3      37.457  34.788  28.175  1.00 14.89     0.175 C 
HETATM   72  O4' BRU D   3      38.514  34.709  29.151  1.00 16.05    -0.333 OA
HETATM   73  C1' BRU D   3      38.237  33.577  29.968  1.00 15.34     0.211 C 
HETATM   74  C2' BRU D   3      36.716  33.650  30.172  1.00 12.90     0.087 C 
BRANCH  71  75
HETATM   75  C5' BRU D   3      37.394  36.151  27.537  1.00 17.61     0.187 C 
BRANCH  75  76
HETATM   76  O5' BRU D   3      36.144  36.370  26.912  1.00 15.66    -0.268 OA
BRANCH  76  77
HETATM   77  P   BRU D   3      36.098  37.410  25.699  1.00 16.77     0.410 P 
HETATM   78  OP1 BRU D   3      36.109  36.596  24.449  1.00 18.57    -0.624 OA
HETATM   79  OP2 BRU D   3      35.018  38.404  25.951  1.00 18.18    -0.624 OA
BRANCH  77  80
ATOM     80  O3'  DG D   2      37.495  38.171  25.769  1.00 17.32    -0.271 OA
BRANCH  80  81
ATOM     81  C3'  DG D   2      37.588  39.558  25.489  1.00 15.47     0.161 C 
ATOM     82  C2'  DG D   2      38.087  40.308  26.732  1.00 16.87     0.087 C 
ATOM     83  C1'  DG D   2      39.581  39.989  26.720  1.00 16.11     0.210 C 
ATOM     84  O4'  DG D   2      39.934  39.859  25.336  1.00 18.37    -0.333 OA
ATOM     85  C4'  DG D   2      38.761  39.671  24.514  1.00 18.34     0.175 C 
BRANCH  83  86
ATOM     86  N9   DG D   2      40.451  41.025  27.275  1.00 16.03    -0.272 N 
ATOM     87  C8   DG D   2      40.207  42.375  27.353  1.00 14.57     0.182 A 
ATOM     88  N7   DG D   2      41.225  43.063  27.814  1.00 16.34    -0.217 NA
ATOM     89  C5   DG D   2      42.206  42.088  28.062  1.00 13.99     0.175 A 
ATOM     90  C6   DG D   2      43.541  42.228  28.549  1.00 12.33     0.302 A 
ATOM     91  C4   DG D   2      41.726  40.823  27.769  1.00 12.94     0.172 A 
ATOM     92  O6   DG D   2      44.114  43.262  28.839  1.00 15.71    -0.263 OA
ATOM     93  N1   DG D   2      44.186  41.016  28.656  1.00 12.85    -0.174 NA
ATOM     94  C2   DG D   2      43.629  39.788  28.353  1.00 12.30     0.242 A 
ATOM     95  N2   DG D   2      44.420  38.667  28.552  1.00 15.13    -0.059 NA
ATOM     96  N3   DG D   2      42.361  39.636  27.891  1.00 14.89    -0.195 NA
ENDBRANCH  83  86
BRANCH  85  97
ATOM     97  C5'  DG D   2      38.659  40.771  23.485  1.00 20.11     0.187 C 
BRANCH  97  98
ATOM     98  O5'  DG D   2      39.654  41.764  23.709  1.00 21.44    -0.268 OA
BRANCH  98  99
ATOM     99  P    DG D   2      39.306  43.304  23.583  1.00 23.19     0.410 P 
ATOM    100  OP1  DG D   2      38.067  43.337  22.752  1.00 25.33    -0.624 OA
ATOM    101  OP2  DG D   2      39.350  44.017  24.868  1.00 23.21    -0.624 OA
BRANCH  99 102
ATOM    102  O3'  DC D   1      40.484  43.926  22.695  1.00 26.59    -0.271 OA
BRANCH 102 103
ATOM    103  C3'  DC D   1      41.195  43.066  21.814  1.00 27.88     0.161 C 
ATOM    104  C2'  DC D   1      41.406  43.811  20.511  1.00 26.06     0.087 C 
ATOM    105  C1'  DC D   1      42.525  44.743  20.914  1.00 24.51     0.211 C 
ATOM    106  O4'  DC D   1      43.373  43.972  21.778  1.00 29.50    -0.333 OA
ATOM    107  C4'  DC D   1      42.605  42.910  22.368  1.00 29.48     0.178 C 
BRANCH 105 108
ATOM    108  N1   DC D   1      43.382  45.288  19.854  1.00 21.38    -0.256 N 
ATOM    109  C6   DC D   1      43.890  44.493  18.862  1.00 19.62     0.085 A 
ATOM    110  C5   DC D   1      44.748  44.992  17.950  1.00 19.43     0.060 A 
ATOM    111  C4   DC D   1      45.060  46.385  18.041  1.00 17.00     0.190 A 
ATOM    112  N4   DC D   1      45.885  46.953  17.161  1.00 18.52    -0.127 N 
ATOM    113  N3   DC D   1      44.536  47.168  18.996  1.00 17.32    -0.171 NA
ATOM    114  C2   DC D   1      43.709  46.639  19.909  1.00 18.49     0.353 A 
ATOM    115  O2   DC D   1      43.229  47.333  20.811  1.00 18.51    -0.244 OA
ENDBRANCH 105 108
BRANCH 107 116
ATOM    116  C5'  DC D   1      43.264  41.573  22.108  1.00 31.78     0.214 C 
ATOM    117  O5'  DC D   1      43.865  41.556  20.810  1.00 34.90    -0.218 OA
ENDBRANCH 107 116
ENDBRANCH 102 103
ENDBRANCH  99 102
ENDBRANCH  98  99
ENDBRANCH  97  98
ENDBRANCH  85  97
ENDBRANCH  80  81
ENDBRANCH  77  80
ENDBRANCH  76  77
ENDBRANCH  75  76
ENDBRANCH  71  75
BRANCH  73 118
HETATM  118  N1  BRU D   3      39.010  33.719  31.204  1.00 13.25    -0.255 N 
HETATM  119  C2  BRU D   3      38.642  34.684  32.168  1.00 11.90     0.354 A 
HETATM  120  O2  BRU D   3      37.709  35.449  32.012  1.00 16.11    -0.244 OA
HETATM  121  N3  BRU D   3      39.400  34.712  33.296  1.00 12.15    -0.153 NA
HETATM  122  C4  BRU D   3      40.429  33.903  33.579  1.00 12.48     0.291 A 
HETATM  123  O4  BRU D   3      41.106  34.013  34.621  1.00 16.38    -0.264 OA
HETATM  124  C5  BRU D   3      40.716  32.993  32.523  1.00 14.67     0.110 A 
HETATM  125  C6  BRU D   3      40.028  32.942  31.419  1.00 13.17     0.094 A 
HETATM  126 BR   BRU D   3      42.368  31.712  32.765  1.00 24.07    -0.043 Br
ENDBRANCH  73 118
ENDBRANCH  69  70
ENDBRANCH  66  69
ENDBRANCH  65  66
ENDBRANCH  64  65
ENDBRANCH  60  64
BRANCH  62 127
ATOM    127  N1   DT D   4      36.073  30.282  31.570  1.00 13.98    -0.256 N 
ATOM    128  C2   DT D   4      37.239  30.564  32.226  1.00 13.56     0.354 A 
ATOM    129  O2   DT D   4      38.284  29.979  31.947  1.00 16.57    -0.244 OA
ATOM    130  N3   DT D   4      37.170  31.555  33.197  1.00 12.35    -0.153 NA
ATOM    131  C4   DT D   4      36.031  32.275  33.546  1.00 11.46     0.280 A 
ATOM    132  O4   DT D   4      36.077  33.185  34.389  1.00 13.76    -0.265 OA
ATOM    133  C5   DT D   4      34.826  31.867  32.849  1.00 12.51     0.053 A 
ATOM    134  C7   DT D   4      33.534  32.522  33.207  1.00 14.43     0.038 C 
ATOM    135  C6   DT D   4      34.898  30.923  31.908  1.00 14.14     0.083 A 
ENDBRANCH  62 127
ENDBRANCH  58  59
ENDBRANCH  55  58
ENDBRANCH  54  55
ENDBRANCH  53  54
ENDBRANCH  49  53
BRANCH  51 136
ATOM    136  N9   DA D   5      41.050  27.849  29.512  1.00 14.16    -0.272 N 
ATOM    137  C4   DA D   5      42.237  28.196  30.119  1.00 14.21     0.170 A 
ATOM    138  C5   DA D   5      42.102  27.801  31.442  1.00 12.40     0.155 A 
ATOM    139  N3   DA D   5      43.299  28.804  29.575  1.00 13.46    -0.205 NA
ATOM    140  C6   DA D   5      43.172  28.042  32.302  1.00 12.04     0.206 A 
ATOM    141  N7   DA D   5      40.885  27.200  31.639  1.00 14.47    -0.219 NA
ATOM    142  N6   DA D   5      43.144  27.692  33.603  1.00 12.46    -0.125 N 
ATOM    143  N1   DA D   5      44.270  28.650  31.793  1.00 13.98    -0.202 NA
ATOM    144  C2   DA D   5      44.254  28.994  30.490  1.00 14.25     0.202 A 
ATOM    145  C8   DA D   5      40.312  27.218  30.457  1.00 14.09     0.182 A 
ENDBRANCH  51 136
ENDBRANCH  47  48
ENDBRANCH  44  47
ENDBRANCH  43  44
ENDBRANCH  42  43
ENDBRANCH  38  42
BRANCH  40 146
ATOM    146  N1   DC D   6      41.440  34.724  26.925  1.00 11.89    -0.256 N 
ATOM    147  C2   DC D   6      41.077  36.077  27.034  1.00 11.45     0.353 A 
ATOM    148  O2   DC D   6      40.572  36.611  26.069  1.00 12.57    -0.244 OA
ATOM    149  N3   DC D   6      41.291  36.741  28.201  1.00 11.17    -0.171 NA
ATOM    150  C4   DC D   6      41.799  36.095  29.245  1.00 11.08     0.190 A 
ATOM    151  N4   DC D   6      42.025  36.766  30.387  1.00 10.70    -0.127 N 
ATOM    152  C5   DC D   6      42.122  34.688  29.174  1.00 10.83     0.060 A 
ATOM    153  C6   DC D   6      41.925  34.060  28.002  1.00 11.79     0.085 A 
ENDBRANCH  40 146
ENDBRANCH  36  37
ENDBRANCH  33  36
ENDBRANCH  32  33
ENDBRANCH  31  32
ENDBRANCH  22  31
ENDBRANCH  17  18
ENDBRANCH  14  17
ENDBRANCH  13  14
ENDBRANCH  12  13
ENDBRANCH   8  12
BRANCH  10 154
ATOM    154  N9   DA D   8      43.606  36.283  12.937  1.00 10.83    -0.272 N 
ATOM    155  C4   DA D   8      42.843  36.009  11.830  1.00  9.99     0.170 A 
ATOM    156  N3   DA D   8      43.287  35.705  10.580  1.00 10.21    -0.205 NA
ATOM    157  C5   DA D   8      41.535  36.062  12.257  1.00 10.31     0.155 A 
ATOM    158  C2   DA D   8      42.285  35.459   9.773  1.00 10.39     0.202 A 
ATOM    159  N1   DA D   8      40.960  35.484  10.043  1.00 11.14    -0.202 NA
ATOM    160  C6   DA D   8      40.553  35.747  11.306  1.00 10.09     0.206 A 
ATOM    161  N6   DA D   8      39.258  35.649  11.569  1.00 11.37    -0.125 N 
ATOM    162  N7   DA D   8      41.476  36.415  13.617  1.00 10.47    -0.219 NA
ATOM    163  C8   DA D   8      42.740  36.546  13.958  1.00 11.39     0.182 A 
ENDBRANCH  10 154
ENDBRANCH   6   7
ENDBRANCH   3   6
ENDBRANCH   2   3
ENDBRANCH   1   2
BRANCH   1 164
HETATM  164  C4' BRU D   9      44.341  43.280  13.795  1.00 14.07     0.175 C 
HETATM  165  O4' BRU D   9      43.609  44.303  13.056  1.00 13.32    -0.333 OA
HETATM  166  C1' BRU D   9      42.614  44.873  13.901  1.00 13.84     0.211 C 
HETATM  167  C2' BRU D   9      42.513  44.012  15.143  1.00 12.11     0.087 C 
HETATM  168  C3' BRU D   9      43.339  42.778  14.816  1.00 15.00     0.161 C 
BRANCH 166 169
HETATM  169  N1  BRU D   9      41.327  44.788  13.203  1.00 13.67    -0.255 N 
HETATM  170  C2  BRU D   9      40.315  45.573  13.626  1.00 11.22     0.354 A 
HETATM  171  O2  BRU D   9      40.446  46.302  14.584  1.00 13.50    -0.244 OA
HETATM  172  N3  BRU D   9      39.142  45.493  12.889  1.00 11.85    -0.153 NA
HETATM  173  C4  BRU D   9      38.956  44.706  11.824  1.00 10.30     0.291 A 
HETATM  174  O4  BRU D   9      37.894  44.767  11.149  1.00 12.93    -0.264 OA
HETATM  175  C5  BRU D   9      40.099  43.888  11.517  1.00 12.08     0.110 A 
HETATM  176  C6  BRU D   9      41.199  43.952  12.187  1.00 13.06     0.094 A 
HETATM  177 BR   BRU D   9      39.742  42.689   9.863  1.00 15.13    -0.043 Br
ENDBRANCH 166 169
BRANCH 168 178
HETATM  178  O3' BRU D   9      43.993  42.301  15.983  1.00 13.15    -0.271 OA
BRANCH 178 179
ATOM    179  P    DG D  10      43.475  40.951  16.623  1.00 14.52     0.410 P 
ATOM    180  OP2  DG D  10      43.015  39.960  15.595  1.00 14.92    -0.624 OA
ATOM    181  OP1  DG D  10      44.512  40.534  17.630  1.00 16.08    -0.624 OA
BRANCH 179 182
ATOM    182  O5'  DG D  10      42.130  41.370  17.410  1.00 14.63    -0.268 OA
BRANCH 182 183
ATOM    183  C5'  DG D  10      41.354  40.416  18.115  1.00 14.28     0.187 C 
BRANCH 183 184
ATOM    184  C4'  DG D  10      39.892  40.632  17.816  1.00 14.53     0.175 C 
ATOM    185  C3'  DG D  10      39.244  41.818  18.513  1.00 16.36     0.161 C 
ATOM    186  C2'  DG D  10      38.622  41.184  19.755  1.00 15.07     0.087 C 
ATOM    187  C1'  DG D  10      38.153  39.869  19.172  1.00 13.41     0.210 C 
ATOM    188  O4'  DG D  10      39.151  39.463  18.248  1.00 13.85    -0.333 OA
BRANCH 185 189
ATOM    189  O3'  DG D  10      38.262  42.278  17.581  1.00 20.48    -0.271 OA
BRANCH 189 190
ATOM    190  P    DG D  11      38.430  43.702  16.851  1.00 20.71     0.410 P 
ATOM    191  OP2  DG D  11      37.343  44.664  17.135  1.00 22.10    -0.624 OA
ATOM    192  OP1  DG D  11      39.853  44.090  17.039  1.00 24.32    -0.624 OA
BRANCH 190 193
ATOM    193  O5'  DG D  11      38.276  43.332  15.321  1.00 19.33    -0.268 OA
BRANCH 193 194
ATOM    194  C5'  DG D  11      39.057  42.276  14.775  1.00 18.66     0.187 C 
BRANCH 194 195
ATOM    195  C4'  DG D  11      38.148  41.313  14.056  1.00 18.71     0.175 C 
ATOM    196  C3'  DG D  11      37.960  40.007  14.800  1.00 19.69     0.161 C 
ATOM    197  C2'  DG D  11      39.048  39.124  14.215  1.00 18.26     0.087 C 
ATOM    198  C1'  DG D  11      39.017  39.564  12.756  1.00 15.98     0.210 C 
ATOM    199  O4'  DG D  11      38.631  40.928  12.748  1.00 17.85    -0.333 OA
BRANCH 196 200
ATOM    200  O3'  DG D  11      36.684  39.542  14.387  1.00 24.65    -0.271 OA
BRANCH 200 201
ATOM    201  P    DT D  12      35.450  39.740  15.328  1.00 28.19     0.410 P 
ATOM    202  OP2  DT D  12      35.741  40.515  16.556  1.00 27.85    -0.624 OA
ATOM    203  OP1  DT D  12      34.377  40.162  14.382  1.00 29.91    -0.624 OA
BRANCH 201 204
ATOM    204  O5'  DT D  12      35.147  38.286  15.875  1.00 28.66    -0.268 OA
BRANCH 204 205
ATOM    205  C5'  DT D  12      35.781  37.907  17.055  1.00 29.00     0.187 C 
BRANCH 205 206
ATOM    206  C4'  DT D  12      34.976  36.876  17.777  1.00 28.07     0.175 C 
ATOM    207  C3'  DT D  12      35.222  35.427  17.408  1.00 29.44     0.161 C 
ATOM    208  C2'  DT D  12      33.876  34.957  16.873  1.00 29.37     0.087 C 
ATOM    209  C1'  DT D  12      32.885  35.904  17.569  1.00 27.26     0.211 C 
ATOM    210  O4'  DT D  12      33.565  37.120  17.671  1.00 26.37    -0.333 OA
BRANCH 207 211
ATOM    211  O3'  DT D  12      35.533  34.896  18.668  1.00 31.26    -0.271 OA
BRANCH 211 212
ATOM    212  P    DA D  13      36.693  33.824  18.840  1.00 34.05     0.410 P 
ATOM    213  OP2  DA D  13      36.953  33.171  17.522  1.00 31.89    -0.624 OA
ATOM    214  OP1  DA D  13      37.750  34.591  19.514  1.00 33.32    -0.624 OA
BRANCH 212 215
ATOM    215  O5'  DA D  13      36.034  32.851  19.901  1.00 31.02    -0.268 OA
BRANCH 215 216
ATOM    216  C5'  DA D  13      34.616  32.822  20.060  1.00 27.53     0.187 C 
BRANCH 216 217
ATOM    217  C4'  DA D  13      34.137  31.392  20.105  1.00 25.33     0.175 C 
ATOM    218  O4'  DA D  13      35.083  30.546  20.805  1.00 22.92    -0.333 OA
ATOM    219  C1'  DA D  13      34.462  29.904  21.922  1.00 20.98     0.210 C 
ATOM    220  C2'  DA D  13      33.182  30.704  22.205  1.00 23.30     0.087 C 
ATOM    221  C3'  DA D  13      32.794  31.203  20.820  1.00 26.45     0.161 C 
BRANCH 219 222
ATOM    222  N9   DA D  13      35.438  29.921  23.002  1.00 17.31    -0.272 N 
ATOM    223  C8   DA D  13      35.931  28.854  23.669  1.00 17.58     0.182 A 
ATOM    224  N7   DA D  13      36.702  29.160  24.678  1.00 17.72    -0.219 NA
ATOM    225  C5   DA D  13      36.761  30.529  24.651  1.00 14.33     0.155 A 
ATOM    226  C6   DA D  13      37.426  31.477  25.443  1.00 14.45     0.206 A 
ATOM    227  C4   DA D  13      35.988  31.025  23.605  1.00 15.76     0.170 A 
ATOM    228  N6   DA D  13      38.191  31.177  26.531  1.00 15.52    -0.125 N 
ATOM    229  N1   DA D  13      37.280  32.757  25.102  1.00 14.59    -0.202 NA
ATOM    230  C2   DA D  13      36.490  33.089  24.072  1.00 15.74     0.202 A 
ATOM    231  N3   DA D  13      35.787  32.299  23.276  1.00 15.60    -0.205 NA
ENDBRANCH 219 222
BRANCH 221 232
ATOM    232  O3'  DA D  13      32.059  30.205  20.142  1.00 30.43    -0.271 OA
BRANCH 232 233
ATOM    233  P    DA D  14      30.485  30.382  19.970  1.00 32.07     0.410 P 
ATOM    234  OP2  DA D  14      30.208  30.784  18.600  1.00 33.16    -0.624 OA
ATOM    235  OP1  DA D  14      29.881  29.145  20.532  1.00 33.96    -0.624 OA
BRANCH 233 236
ATOM    236  O5'  DA D  14      30.168  31.553  20.966  1.00 31.87    -0.268 OA
BRANCH 236 237
ATOM    237  C5'  DA D  14      29.337  31.290  22.085  1.00 30.81     0.187 C 
BRANCH 237 238
ATOM    238  C4'  DA D  14      29.181  32.549  22.893  1.00 31.39     0.175 C 
ATOM    239  O4'  DA D  14      29.054  32.221  24.301  1.00 30.66    -0.333 OA
ATOM    240  C1'  DA D  14      30.011  32.975  25.019  1.00 28.20     0.210 C 
ATOM    241  C2'  DA D  14      31.167  33.176  24.058  1.00 29.16     0.087 C 
ATOM    242  C3'  DA D  14      30.388  33.475  22.792  1.00 31.09     0.161 C 
BRANCH 240 243
ATOM    243  N9   DA D  14      30.317  32.274  26.249  1.00 24.41    -0.272 N 
ATOM    244  C4   DA D  14      30.765  30.983  26.257  1.00 21.62     0.170 A 
ATOM    245  N3   DA D  14      31.039  30.220  25.175  1.00 18.94    -0.205 NA
ATOM    246  C5   DA D  14      30.830  30.624  27.577  1.00 22.12     0.155 A 
ATOM    247  C2   DA D  14      31.376  28.972  25.563  1.00 18.83     0.202 A 
ATOM    248  N1   DA D  14      31.482  28.509  26.791  1.00 18.79    -0.202 NA
ATOM    249  C6   DA D  14      31.225  29.336  27.845  1.00 19.52     0.206 A 
ATOM    250  N6   DA D  14      31.370  28.891  29.077  1.00 21.07    -0.125 N 
ATOM    251  N7   DA D  14      30.461  31.685  28.405  1.00 24.53    -0.219 NA
ATOM    252  C8   DA D  14      30.192  32.650  27.559  1.00 24.70     0.182 A 
ENDBRANCH 240 243
BRANCH 242 253
ATOM    253  O3'  DA D  14      29.868  34.785  22.835  1.00 31.14    -0.271 OA
BRANCH 253 254
ATOM    254  P    DC D  15      29.559  35.581  21.474  1.00 30.59     0.410 P 
ATOM    255  OP1  DC D  15      28.183  36.134  21.632  1.00 31.75    -0.624 OA
ATOM    256  OP2  DC D  15      29.923  34.797  20.254  1.00 29.87    -0.624 OA
BRANCH 254 257
ATOM    257  O5'  DC D  15      30.577  36.803  21.662  1.00 30.76    -0.268 OA
BRANCH 257 258
ATOM    258  C5'  DC D  15      32.010  36.563  21.626  1.00 28.28     0.187 C 
BRANCH 258 259
ATOM    259  C4'  DC D  15      32.695  37.125  22.858  1.00 28.15     0.175 C 
ATOM    260  O4'  DC D  15      33.820  37.961  22.506  1.00 23.18    -0.333 OA
ATOM    261  C1'  DC D  15      33.676  39.269  23.062  1.00 22.58     0.211 C 
ATOM    262  C2'  DC D  15      32.218  39.394  23.474  1.00 24.52     0.087 C 
ATOM    263  C3'  DC D  15      31.825  37.962  23.784  1.00 28.37     0.161 C 
BRANCH 261 264
ATOM    264  N1   DC D  15      34.031  40.229  22.014  1.00 18.64    -0.256 N 
ATOM    265  C6   DC D  15      33.647  40.019  20.717  1.00 16.47     0.085 A 
ATOM    266  C5   DC D  15      34.030  40.836  19.740  1.00 15.01     0.060 A 
ATOM    267  C4   DC D  15      34.881  41.944  20.109  1.00 13.33     0.190 A 
ATOM    268  N3   DC D  15      35.186  42.194  21.379  1.00 13.89    -0.171 NA
ATOM    269  N4   DC D  15      35.391  42.720  19.171  1.00 15.28    -0.127 N 
ATOM    270  C2   DC D  15      34.797  41.366  22.351  1.00 18.12     0.353 A 
ATOM    271  O2   DC D  15      35.102  41.543  23.552  1.00 20.47    -0.244 OA
ENDBRANCH 261 264
BRANCH 263 272
ATOM    272  O3'  DC D  15      32.148  37.681  25.138  1.00 31.34    -0.271 OA
BRANCH 272 273
ATOM    273  P    DG D  16      31.098  36.899  26.033  1.00 32.78     0.410 P 
ATOM    274  OP1  DG D  16      31.769  35.657  26.515  1.00 34.59    -0.624 OA
ATOM    275  OP2  DG D  16      29.842  36.809  25.248  1.00 31.45    -0.624 OA
BRANCH 273 276
ATOM    276  O5'  DG D  16      30.854  37.890  27.245  1.00 31.83    -0.268 OA
BRANCH 276 277
ATOM    277  C5'  DG D  16      30.009  39.021  27.100  1.00 31.48     0.187 C 
BRANCH 277 278
ATOM    278  C4'  DG D  16      30.672  40.225  27.719  1.00 29.56     0.178 C 
ATOM    279  C3'  DG D  16      31.433  41.118  26.729  1.00 29.50     0.186 C 
ATOM    280  C2'  DG D  16      32.885  40.729  26.971  1.00 28.21     0.090 C 
ATOM    281  O3'  DG D  16      31.275  42.496  27.135  1.00 31.52    -0.221 OA
ATOM    282  C1'  DG D  16      32.851  40.508  28.460  1.00 24.75     0.210 C 
ATOM    283  O4'  DG D  16      31.654  39.799  28.688  1.00 27.49    -0.333 OA
BRANCH 282 284
ATOM    284  N9   DG D  16      33.941  39.721  29.008  1.00 21.33    -0.271 N 
ATOM    285  C4   DG D  16      35.146  40.212  29.421  1.00 19.88     0.188 A 
ATOM    286  N3   DG D  16      35.512  41.523  29.426  1.00 18.33    -0.038 NA
ATOM    287  C5   DG D  16      35.874  39.110  29.808  1.00 17.85     0.176 A 
ATOM    288  C2   DG D  16      36.727  41.694  29.862  1.00 15.82     0.773 A 
ATOM    289  N1   DG D  16      37.550  40.644  30.250  1.00 16.33    -0.016 NA
ATOM    290  N2   DG D  16      37.246  42.958  29.972  1.00 16.23     0.062 N 
ATOM    291  C6   DG D  16      37.195  39.299  30.259  1.00 15.94     0.316 A 
ATOM    292  O6   DG D  16      38.042  38.445  30.639  1.00 18.70    -0.263 OA
ATOM    293  N7   DG D  16      35.111  37.954  29.687  1.00 18.48    -0.217 NA
ATOM    294  C8   DG D  16      33.976  38.367  29.197  1.00 19.50     0.182 A 
ENDBRANCH 282 284
ENDBRANCH 277 278
ENDBRANCH 276 277
ENDBRANCH 273 276
ENDBRANCH 272 273
ENDBRANCH 263 272
ENDBRANCH 258 259
ENDBRANCH 257 258
ENDBRANCH 254 257
ENDBRANCH 253 254
ENDBRANCH 242 253
ENDBRANCH 237 238
ENDBRANCH 236 237
ENDBRANCH 233 236
ENDBRANCH 232 233
ENDBRANCH 221 232
ENDBRANCH 216 217
ENDBRANCH 215 216
ENDBRANCH 212 215
ENDBRANCH 211 212
ENDBRANCH 207 211
BRANCH 209 295
ATOM    295  N1   DT D  12      31.640  36.207  16.854  1.00 25.54    -0.256 N 
ATOM    296  C6   DT D  12      31.388  37.471  16.361  1.00 22.97     0.083 A 
ATOM    297  C5   DT D  12      30.231  37.819  15.763  1.00 22.23     0.053 A 
ATOM    298  C4   DT D  12      29.215  36.814  15.629  1.00 20.03     0.280 A 
ATOM    299  C7   DT D  12      29.944  39.181  15.219  1.00 23.27     0.038 C 
ATOM    300  O4   DT D  12      28.117  37.038  15.125  1.00 18.53    -0.265 OA
ATOM    301  N3   DT D  12      29.545  35.547  16.113  1.00 19.51    -0.153 NA
ATOM    302  C2   DT D  12      30.713  35.183  16.727  1.00 22.25     0.354 A 
ATOM    303  O2   DT D  12      30.924  34.047  17.137  1.00 24.24    -0.244 OA
ENDBRANCH 209 295
ENDBRANCH 205 206
ENDBRANCH 204 205
ENDBRANCH 201 204
ENDBRANCH 200 201
ENDBRANCH 196 200
BRANCH 198 304
ATOM    304  N9   DG D  11      40.290  39.490  12.047  1.00 15.12    -0.271 N 
ATOM    305  C8   DG D  11      41.538  39.796  12.537  1.00 13.13     0.182 A 
ATOM    306  N7   DG D  11      42.474  39.737  11.627  1.00 13.46    -0.217 NA
ATOM    307  C5   DG D  11      41.803  39.373  10.465  1.00 11.37     0.176 A 
ATOM    308  C6   DG D  11      42.302  39.194   9.164  1.00 10.16     0.316 A 
ATOM    309  C4   DG D  11      40.463  39.185  10.705  1.00 12.33     0.188 A 
ATOM    310  O6   DG D  11      43.432  39.388   8.771  1.00 10.86    -0.263 OA
ATOM    311  N1   DG D  11      41.295  38.767   8.286  1.00 10.07    -0.016 NA
ATOM    312  C2   DG D  11      39.959  38.582   8.633  1.00 11.41     0.773 A 
ATOM    313  N2   DG D  11      39.107  38.124   7.667  1.00 10.83     0.062 N 
ATOM    314  N3   DG D  11      39.488  38.811   9.845  1.00 11.83    -0.038 NA
ENDBRANCH 198 304
ENDBRANCH 194 195
ENDBRANCH 193 194
ENDBRANCH 190 193
ENDBRANCH 189 190
ENDBRANCH 185 189
BRANCH 187 315
ATOM    315  N9   DG D  10      38.018  38.831  20.185  1.00 11.23    -0.271 N 
ATOM    316  C8   DG D  10      36.870  38.158  20.561  1.00 12.20     0.182 A 
ATOM    317  N7   DG D  10      37.104  37.219  21.453  1.00 12.66    -0.217 NA
ATOM    318  C5   DG D  10      38.471  37.311  21.694  1.00 10.47     0.176 A 
ATOM    319  C4   DG D  10      39.043  38.301  20.927  1.00 10.52     0.188 A 
ATOM    320  C6   DG D  10      39.326  36.565  22.592  1.00 11.39     0.316 A 
ATOM    321  N3   DG D  10      40.331  38.691  20.892  1.00 10.98    -0.038 NA
ATOM    322  C2   DG D  10      41.101  37.957  21.687  1.00  8.78     0.773 A 
ATOM    323  N1   DG D  10      40.639  36.959  22.502  1.00  9.45    -0.016 NA
ATOM    324  N2   DG D  10      42.415  38.153  21.717  1.00 10.60     0.062 N 
ATOM    325  O6   DG D  10      39.017  35.666  23.410  1.00 10.46    -0.263 OA
ENDBRANCH 187 315
ENDBRANCH 183 184
ENDBRANCH 182 183
ENDBRANCH 179 182
ENDBRANCH 178 179
ENDBRANCH 168 178
ENDBRANCH   1 164
TORSDOF 92
ENDMDL
MODEL 2
REMARK VINA RESULT:      -0.3      3.696     14.095
REMARK WARNING: 32 MAX_TORS EXCEEDED!!!
REMARK  92 active torsions:
REMARK  status: ('A' for Active; 'I' for Inactive)
REMARK    1  A    between atoms: C5'_1  and  C4'_3 
REMARK    2  A    between atoms: C3'_5  and  O3'_6 
REMARK    3  A    between atoms: O3'_6  and  P_17 
REMARK    4  A    between atoms: C1'_8  and  N1_9 
REMARK    5  A    between atoms: P_17  and  O5'_19 
REMARK    6  A    between atoms: C5'_18  and  O5'_19 
REMARK    7  A    between atoms: C5'_18  and  C4'_20 
REMARK    8  A    between atoms: C3'_22  and  O3'_23 
REMARK    9  A    between atoms: O3'_23  and  P_39 
REMARK   10  A    between atoms: C1'_25  and  N9_36 
REMARK   11  A    between atoms: P_39  and  O5'_41 
REMARK   12  A    between atoms: C5'_40  and  O5'_41 
REMARK   13  A    between atoms: C5'_40  and  C4'_42 
REMARK   14  A    between atoms: C3'_44  and  O3'_45 
REMARK   15  A    between atoms: O3'_45  and  P_59 
REMARK   16  A    between atoms: C1'_47  and  N1_48 
REMARK   17  A    between atoms: P_59  and  O5'_61 
REMARK   18  A    between atoms: C5'_60  and  C4'_62 
REMARK   19  A    between atoms: C5'_60  and  O5'_61 
REMARK   20  A    between atoms: C3'_64  and  O3'_65 
REMARK   21  A    between atoms: O3'_65  and  P_79 
REMARK   22  A    between atoms: C1'_67  and  N1_68 
REMARK   23  A    between atoms: P_79  and  O5'_81 
REMARK   24  A    between atoms: C5'_80  and  C4'_82 
REMARK   25  A    between atoms: C5'_80  and  O5'_81 
REMARK   26  A    between atoms: C3'_84  and  O3'_85 
REMARK   27  A    between atoms: O3'_85  and  P_100 
REMARK   28  A    between atoms: C1'_87  and  N9_97 
REMARK   29  A    between atoms: P_100  and  O5'_102 
REMARK   30  A    between atoms: C5'_101  and  C4'_103 
REMARK   31  A    between atoms: C5'_101  and  O5'_102 
REMARK   32  A    between atoms: C3'_105  and  O3'_106 
REMARK   33  A    between atoms: O3'_106  and  P_119 
REMARK   34  A    between atoms: C1'_108  and  N1_109 
REMARK   35  A    between atoms: P_119  and  O5'_121 
REMARK   36  A    between atoms: C5'_120  and  O5'_121 
REMARK   37  A    between atoms: C5'_120  and  C4'_122 
REMARK   38  A    between atoms: C3'_124  and  O3'_125 
REMARK   39  A    between atoms: O3'_125  and  P_138 
REMARK   40  A    between atoms: C1'_127  and  N1_128 
REMARK   41  A    between atoms: P_138  and  O5'_140 
REMARK   42  A    between atoms: C5'_139  and  C4'_141 
REMARK   43  A    between atoms: C5'_139  and  O5'_140 
REMARK   44  A    between atoms: C3'_143  and  O3'_144 
REMARK   45  A    between atoms: O3'_144  and  P_159 
REMARK   46  A    between atoms: C1'_146  and  N9_156 
REMARK   47  A    between atoms: P_159  and  O5'_161 
REMARK   48  A    between atoms: C5'_160  and  O5'_161 
REMARK   49  A    between atoms: C5'_160  and  C4'_162 
REMARK   50  A    between atoms: C3'_164  and  O3'_165 
REMARK   51  A    between atoms: O3'_165  and  P_179 
REMARK   52  A    between atoms: C1'_167  and  N1_168 
REMARK   53  A    between atoms: P_179  and  O5'_181 
REMARK   54  A    between atoms: C5'_180  and  C4'_182 
REMARK   55  A    between atoms: C5'_180  and  O5'_181 
REMARK   56  A    between atoms: C3'_184  and  O3'_185 
REMARK   57  A    between atoms: O3'_185  and  P_201 
REMARK   58  A    between atoms: C1'_187  and  N9_198 
REMARK   59  A    between atoms: P_201  and  O5'_203 
REMARK   60  A    between atoms: C5'_202  and  O5'_203 
REMARK   61  A    between atoms: C5'_202  and  C4'_204 
REMARK   62  A    between atoms: C3'_206  and  O3'_207 
REMARK   63  A    between atoms: O3'_207  and  P_223 
REMARK   64  A    between atoms: C1'_209  and  N9_220 
REMARK   65  A    between atoms: P_223  and  O5'_225 
REMARK   66  A    between atoms: C5'_224  and  O5'_225 
REMARK   67  A    between atoms: C5'_224  and  C4'_226 
REMARK   68  A    between atoms: C3'_228  and  O3'_229 
REMARK   69  A    between atoms: O3'_229  and  P_243 
REMARK   70  A    between atoms: C1'_231  and  N1_232 
REMARK   71  A    between atoms: P_243  and  O5'_245 
REMARK   72  A    between atoms: C5'_244  and  C4'_246 
REMARK   73  A    between atoms: C5'_244  and  O5'_245 
REMARK   74  A    between atoms: C3'_248  and  O3'_249 
REMARK   75  A    between atoms: O3'_249  and  P_264 
REMARK   76  A    between atoms: C1'_251  and  N9_261 
REMARK   77  A    between atoms: P_264  and  O5'_266 
REMARK   78  A    between atoms: C5'_265  and  C4'_267 
REMARK   79  A    between atoms: C5'_265  and  O5'_266 
REMARK   80  A    between atoms: C3'_269  and  O3'_270 
REMARK   81  A    between atoms: O3'_270  and  P_285 
REMARK   82  A    between atoms: C1'_272  and  N9_282 
REMARK   83  A    between atoms: P_285  and  O5'_287 
REMARK   84  A    between atoms: C5'_286  and  O5'_287 
REMARK   85  A    between atoms: C5'_286  and  C4'_288 
REMARK   86  A    between atoms: C3'_290  and  O3'_291 
REMARK   87  A    between atoms: O3'_291  and  P_304 
REMARK   88  A    between atoms: C1'_293  and  N1_294 
REMARK   89  A    between atoms: P_304  and  O5'_306 
REMARK   90  A    between atoms: C5'_305  and  C4'_307 
REMARK   91  A    between atoms: C5'_305  and  O5'_306 
REMARK   92  A    between atoms: C1'_312  and  N9_323 
ROOT
HETATM    1  C5' BRU D   9      33.586  30.046  15.900  1.00 14.48     0.187 C 
ENDROOT
BRANCH   1   2
HETATM    2  O5' BRU D   9      33.923  31.042  16.846  1.00 12.82    -0.268 OA
BRANCH   2   3
HETATM    3  P   BRU D   9      34.652  30.648  18.194  1.00 11.11     0.410 P 
HETATM    4  OP1 BRU D   9      33.657  30.620  19.330  1.00 14.53    -0.624 OA
HETATM    5  OP2 BRU D   9      35.413  29.416  17.856  1.00 12.75    -0.624 OA
BRANCH   3   6
ATOM      6  O3'  DA D   8      35.543  31.920  18.508  1.00 11.43    -0.271 OA
BRANCH   6   7
ATOM      7  C3'  DA D   8      35.501  32.479  19.806  1.00 10.57     0.161 C 
ATOM      8  C4'  DA D   8      35.003  33.918  19.713  1.00 11.52     0.175 C 
ATOM      9  O4'  DA D   8      35.613  34.605  20.819  1.00 11.40    -0.333 OA
ATOM     10  C1'  DA D   8      36.786  33.897  21.254  1.00 11.23     0.210 C 
ATOM     11  C2'  DA D   8      36.896  32.642  20.390  1.00 12.23     0.087 C 
BRANCH   8  12
ATOM     12  C5'  DA D   8      33.508  34.102  19.788  1.00 13.06     0.187 C 
BRANCH  12  13
ATOM     13  O5'  DA D   8      33.161  35.424  19.457  1.00 11.03    -0.268 OA
BRANCH  13  14
ATOM     14  P    DA D   8      31.826  36.071  20.089  1.00 12.25     0.410 P 
ATOM     15  OP2  DA D   8      30.889  34.920  20.354  1.00 11.74    -0.624 OA
ATOM     16  OP1  DA D   8      31.369  37.191  19.252  1.00 15.55    -0.624 OA
BRANCH  14  17
ATOM     17  O3'  DC D   7      32.296  36.693  21.487  1.00 12.10    -0.271 OA
BRANCH  17  18
ATOM     18  C3'  DC D   7      32.102  35.929  22.695  1.00 11.74     0.161 C 
ATOM     19  C2'  DC D   7      33.408  35.528  23.377  1.00 11.76     0.087 C 
ATOM     20  C1'  DC D   7      33.000  35.405  24.849  1.00 12.42     0.211 C 
ATOM     21  O4'  DC D   7      31.849  36.227  25.009  1.00 12.34    -0.333 OA
ATOM     22  C4'  DC D   7      31.466  36.822  23.738  1.00 11.56     0.175 C 
BRANCH  20  23
ATOM     23  N1   DC D   7      32.567  34.010  25.101  1.00 11.09    -0.256 N 
ATOM     24  C2   DC D   7      32.792  33.496  26.380  1.00  9.80     0.353 A 
ATOM     25  O2   DC D   7      33.389  34.239  27.181  1.00 10.91    -0.244 OA
ATOM     26  N3   DC D   7      32.388  32.244  26.707  1.00  9.76    -0.171 NA
ATOM     27  C4   DC D   7      31.821  31.475  25.793  1.00 11.68     0.190 A 
ATOM     28  N4   DC D   7      31.434  30.217  26.151  1.00 10.83    -0.127 N 
ATOM     29  C5   DC D   7      31.593  31.955  24.442  1.00 10.32     0.060 A 
ATOM     30  C6   DC D   7      31.982  33.226  24.148  1.00 11.95     0.085 A 
ENDBRANCH  20  23
BRANCH  22  31
ATOM     31  C5'  DC D   7      29.968  36.926  23.665  1.00 14.18     0.187 C 
BRANCH  31  32
ATOM     32  O5'  DC D   7      29.433  36.672  24.971  1.00 16.43    -0.268 OA
BRANCH  32  33
ATOM     33  P    DC D   7      28.591  35.348  25.218  1.00 18.54     0.410 P 
ATOM     34  OP1  DC D   7      27.247  35.755  25.599  1.00 22.71    -0.624 OA
ATOM     35  OP2  DC D   7      28.838  34.477  24.072  1.00 19.79    -0.624 OA
BRANCH  33  36
ATOM     36  O3'  DC D   6      29.228  34.797  26.595  1.00 17.13    -0.271 OA
BRANCH  36  37
ATOM     37  C3'  DC D   6      29.076  35.522  27.794  1.00 14.94     0.161 C 
ATOM     38  C4'  DC D   6      30.469  35.946  28.244  1.00 15.77     0.175 C 
ATOM     39  O4'  DC D   6      30.885  34.931  29.174  1.00 13.81    -0.333 OA
ATOM     40  C1'  DC D   6      29.945  33.893  29.168  1.00 12.86     0.211 C 
ATOM     41  C2'  DC D   6      28.627  34.567  28.884  1.00 14.65     0.087 C 
BRANCH  38  42
ATOM     42  C5'  DC D   6      30.490  37.301  28.907  1.00 18.13     0.187 C 
BRANCH  42  43
ATOM     43  O5'  DC D   6      29.639  38.193  28.194  1.00 19.27    -0.268 OA
BRANCH  43  44
ATOM     44  P    DC D   6      30.152  39.658  27.794  1.00 19.84     0.410 P 
ATOM     45  OP1  DC D   6      29.096  40.200  26.901  1.00 24.35    -0.624 OA
ATOM     46  OP2  DC D   6      30.502  40.369  29.023  1.00 20.92    -0.624 OA
BRANCH  44  47
ATOM     47  O3'  DA D   5      31.419  39.324  26.888  1.00 19.93    -0.271 OA
BRANCH  47  48
ATOM     48  C3'  DA D   5      32.738  39.556  27.379  1.00 16.89     0.161 C 
ATOM     49  C4'  DA D   5      33.253  40.780  26.629  1.00 17.32     0.175 C 
ATOM     50  O4'  DA D   5      33.949  40.266  25.489  1.00 18.24    -0.333 OA
ATOM     51  C1'  DA D   5      34.016  38.830  25.555  1.00 15.77     0.210 C 
ATOM     52  C2'  DA D   5      33.715  38.448  26.990  1.00 16.34     0.087 C 
BRANCH  49  53
ATOM     53  C5'  DA D   5      34.094  41.734  27.448  1.00 17.61     0.187 C 
BRANCH  53  54
ATOM     54  O5'  DA D   5      35.473  41.527  27.155  1.00 19.33    -0.268 OA
BRANCH  54  55
ATOM     55  P    DA D   5      36.493  41.239  28.326  1.00 20.74     0.410 P 
ATOM     56  OP2  DA D   5      36.168  39.971  29.020  1.00 23.47    -0.624 OA
ATOM     57  OP1  DA D   5      36.622  42.516  29.102  1.00 23.99    -0.624 OA
BRANCH  55  58
ATOM     58  O3'  DT D   4      37.900  41.123  27.542  1.00 19.59    -0.271 OA
BRANCH  58  59
ATOM     59  C3'  DT D   4      39.047  40.489  28.147  1.00 18.10     0.161 C 
ATOM     60  C4'  DT D   4      39.883  41.575  28.843  1.00 15.82     0.175 C 
ATOM     61  O4'  DT D   4      41.010  41.835  27.986  1.00 16.38    -0.333 OA
ATOM     62  C1'  DT D   4      40.897  41.129  26.754  1.00 15.63     0.211 C 
ATOM     63  C2'  DT D   4      40.000  39.925  27.091  1.00 16.56     0.087 C 
BRANCH  60  64
ATOM     64  C5'  DT D   4      40.427  41.233  30.215  1.00 17.08     0.187 C 
BRANCH  64  65
ATOM     65  O5'  DT D   4      39.473  41.604  31.231  1.00 15.07    -0.268 OA
BRANCH  65  66
ATOM     66  P    DT D   4      39.134  40.585  32.412  1.00 15.11     0.410 P 
ATOM     67  OP1  DT D   4      40.369  39.754  32.706  1.00 18.00    -0.624 OA
ATOM     68  OP2  DT D   4      38.529  41.417  33.494  1.00 17.03    -0.624 OA
BRANCH  66  69
HETATM   69  O3' BRU D   3      38.126  39.600  31.735  1.00 15.24    -0.271 OA
BRANCH  69  70
HETATM   70  C3' BRU D   3      38.272  38.180  31.849  1.00 13.22     0.161 C 
HETATM   71  C4' BRU D   3      38.569  37.723  30.421  1.00 14.89     0.175 C 
HETATM   72  O4' BRU D   3      37.679  36.624  30.147  1.00 16.05    -0.333 OA
HETATM   73  C1' BRU D   3      36.492  36.860  30.895  1.00 15.34     0.211 C 
HETATM   74  C2' BRU D   3      37.017  37.385  32.240  1.00 12.90     0.087 C 
BRANCH  71  75
HETATM   75  C5' BRU D   3      39.990  37.392  30.044  1.00 17.61     0.187 C 
BRANCH  75  76
HETATM   76  O5' BRU D   3      40.452  36.246  30.733  1.00 15.66    -0.268 OA
BRANCH  76  77
HETATM   77  P   BRU D   3      41.130  35.088  29.866  1.00 16.77     0.410 P 
HETATM   78  OP1 BRU D   3      42.215  34.512  30.712  1.00 18.57    -0.624 OA
HETATM   79  OP2 BRU D   3      40.064  34.217  29.297  1.00 18.18    -0.624 OA
BRANCH  77  80
ATOM     80  O3'  DG D   2      41.839  35.850  28.661  1.00 17.32    -0.271 OA
BRANCH  80  81
ATOM     81  C3'  DG D   2      41.605  35.470  27.315  1.00 15.47     0.161 C 
ATOM     82  C2'  DG D   2      41.971  36.628  26.376  1.00 16.87     0.087 C 
ATOM     83  C1'  DG D   2      43.496  36.555  26.355  1.00 16.11     0.210 C 
ATOM     84  O4'  DG D   2      43.815  35.166  26.513  1.00 18.37    -0.333 OA
ATOM     85  C4'  DG D   2      42.684  34.425  27.022  1.00 18.34     0.175 C 
BRANCH  83  86
ATOM     86  N9   DG D   2      44.131  36.987  25.111  1.00 16.03    -0.272 N 
ATOM     87  C8   DG D   2      43.519  37.319  23.926  1.00 14.57     0.182 A 
ATOM     88  N7   DG D   2      44.365  37.572  22.955  1.00 16.34    -0.217 NA
ATOM     89  C5   DG D   2      45.625  37.399  23.553  1.00 13.99     0.175 A 
ATOM     90  C6   DG D   2      46.933  37.511  22.992  1.00 12.33     0.302 A 
ATOM     91  C4   DG D   2      45.493  37.075  24.892  1.00 12.94     0.172 A 
ATOM     92  O6   DG D   2      47.220  37.774  21.838  1.00 15.71    -0.263 OA
ATOM     93  N1   DG D   2      47.921  37.263  23.920  1.00 12.85    -0.174 NA
ATOM     94  C2   DG D   2      47.704  36.956  25.249  1.00 12.30     0.242 A 
ATOM     95  N2   DG D   2      48.823  36.768  26.046  1.00 15.13    -0.059 NA
ATOM     96  N3   DG D   2      46.468  36.848  25.800  1.00 14.89    -0.195 NA
ENDBRANCH  83  86
BRANCH  85  97
ATOM     97  C5'  DG D   2      42.295  33.330  26.058  1.00 20.11     0.187 C 
BRANCH  97  98
ATOM     98  O5'  DG D   2      41.210  32.568  26.573  1.00 21.44    -0.268 OA
BRANCH  98  99
ATOM     99  P    DG D   2      41.471  31.270  27.444  1.00 23.19     0.410 P 
ATOM    100  OP1  DG D   2      42.102  30.308  26.495  1.00 25.33    -0.624 OA
ATOM    101  OP2  DG D   2      42.112  31.558  28.736  1.00 23.21    -0.624 OA
BRANCH  99 102
ATOM    102  O3'  DC D   1      40.016  30.702  27.792  1.00 26.59    -0.271 OA
BRANCH 102 103
ATOM    103  C3'  DC D   1      39.625  30.629  29.156  1.00 27.88     0.161 C 
ATOM    104  C2'  DC D   1      38.164  31.024  29.240  1.00 26.06     0.087 C 
ATOM    105  C1'  DC D   1      37.515  29.762  28.723  1.00 24.51     0.211 C 
ATOM    106  O4'  DC D   1      38.296  28.682  29.259  1.00 29.50    -0.333 OA
ATOM    107  C4'  DC D   1      39.619  29.158  29.553  1.00 29.48     0.178 C 
BRANCH 105 108
ATOM    108  N1   DC D   1      36.119  29.502  29.097  1.00 21.38    -0.256 N 
ATOM    109  C6   DC D   1      35.791  28.944  30.303  1.00 19.62     0.085 A 
ATOM    110  C5   DC D   1      34.512  28.629  30.591  1.00 19.43     0.060 A 
ATOM    111  C4   DC D   1      33.524  28.947  29.608  1.00 17.00     0.190 A 
ATOM    112  N4   DC D   1      32.236  28.684  29.832  1.00 18.52    -0.127 N 
ATOM    113  N3   DC D   1      33.846  29.522  28.438  1.00 17.32    -0.171 NA
ATOM    114  C2   DC D   1      35.129  29.797  28.165  1.00 18.49     0.353 A 
ATOM    115  O2   DC D   1      35.455  30.307  27.088  1.00 18.51    -0.244 OA
ENDBRANCH 105 108
BRANCH 107 116
ATOM    116  C5'  DC D   1      39.979  28.868  30.993  1.00 31.78     0.214 C 
ATOM    117  O5'  DC D   1      38.969  29.374  31.871  1.00 34.90    -0.218 OA
ENDBRANCH 107 116
ENDBRANCH 102 103
ENDBRANCH  99 102
ENDBRANCH  98  99
ENDBRANCH  97  98
ENDBRANCH  85  97
ENDBRANCH  80  81
ENDBRANCH  77  80
ENDBRANCH  76  77
ENDBRANCH  75  76
ENDBRANCH  71  75
BRANCH  73 118
HETATM  118  N1  BRU D   3      35.768  35.590  30.995  1.00 13.25    -0.255 N 
HETATM  119  C2  BRU D   3      34.500  35.444  30.389  1.00 11.90     0.354 A 
HETATM  120  O2  BRU D   3      33.942  36.350  29.798  1.00 16.11    -0.244 OA
HETATM  121  N3  BRU D   3      33.926  34.218  30.507  1.00 12.15    -0.153 NA
HETATM  122  C4  BRU D   3      34.460  33.149  31.112  1.00 12.48     0.291 A 
HETATM  123  O4  BRU D   3      33.856  32.062  31.216  1.00 16.38    -0.264 OA
HETATM  124  C5  BRU D   3      35.724  33.428  31.701  1.00 14.67     0.110 A 
HETATM  125  C6  BRU D   3      36.304  34.591  31.628  1.00 13.17     0.094 A 
HETATM  126 BR   BRU D   3      36.660  31.880  32.778  1.00 24.07    -0.043 Br
ENDBRANCH  73 118
ENDBRANCH  69  70
ENDBRANCH  66  69
ENDBRANCH  65  66
ENDBRANCH  64  65
ENDBRANCH  60  64
BRANCH  62 127
ATOM    127  N1   DT D   4      42.291  40.861  26.297  1.00 13.98    -0.256 N 
ATOM    128  C2   DT D   4      42.597  41.071  24.982  1.00 13.56     0.354 A 
ATOM    129  O2   DT D   4      41.737  41.419  24.175  1.00 16.57    -0.244 OA
ATOM    130  N3   DT D   4      43.928  40.890  24.628  1.00 12.35    -0.153 NA
ATOM    131  C4   DT D   4      44.957  40.523  25.490  1.00 11.46     0.280 A 
ATOM    132  O4   DT D   4      46.131  40.440  25.094  1.00 13.76    -0.265 OA
ATOM    133  C5   DT D   4      44.533  40.255  26.851  1.00 12.51     0.053 A 
ATOM    134  C7   DT D   4      45.546  39.779  27.838  1.00 14.43     0.038 C 
ATOM    135  C6   DT D   4      43.256  40.443  27.191  1.00 14.14     0.083 A 
ENDBRANCH  62 127
ENDBRANCH  58  59
ENDBRANCH  55  58
ENDBRANCH  54  55
ENDBRANCH  53  54
ENDBRANCH  49  53
BRANCH  51 136
ATOM    136  N9   DA D   5      35.372  38.496  25.097  1.00 14.16    -0.272 N 
ATOM    137  C4   DA D   5      35.784  38.453  23.783  1.00 14.21     0.170 A 
ATOM    138  C5   DA D   5      37.163  38.315  23.835  1.00 12.40     0.155 A 
ATOM    139  N3   DA D   5      35.035  38.544  22.677  1.00 13.46    -0.205 NA
ATOM    140  C6   DA D   5      37.853  38.251  22.626  1.00 12.04     0.206 A 
ATOM    141  N7   DA D   5      37.587  38.242  25.137  1.00 14.47    -0.219 NA
ATOM    142  N6   DA D   5      39.192  38.110  22.567  1.00 12.46    -0.125 N 
ATOM    143  N1   DA D   5      37.135  38.333  21.481  1.00 13.98    -0.202 NA
ATOM    144  C2   DA D   5      35.799  38.483  21.583  1.00 14.25     0.202 A 
ATOM    145  C8   DA D   5      36.485  38.316  25.849  1.00 14.09     0.182 A 
ENDBRANCH  51 136
ENDBRANCH  47  48
ENDBRANCH  44  47
ENDBRANCH  43  44
ENDBRANCH  42  43
ENDBRANCH  38  42
BRANCH  40 146
ATOM    146  N1   DC D   6      30.064  33.135  30.447  1.00 11.89    -0.256 N 
ATOM    147  C2   DC D   6      29.483  31.855  30.496  1.00 11.45     0.353 A 
ATOM    148  O2   DC D   6      29.037  31.393  29.468  1.00 12.57    -0.244 OA
ATOM    149  N3   DC D   6      29.442  31.178  31.674  1.00 11.17    -0.171 NA
ATOM    150  C4   DC D   6      29.993  31.709  32.761  1.00 11.08     0.190 A 
ATOM    151  N4   DC D   6      29.930  31.039  33.924  1.00 10.70    -0.127 N 
ATOM    152  C5   DC D   6      30.649  32.996  32.719  1.00 10.83     0.060 A 
ATOM    153  C6   DC D   6      30.653  33.658  31.548  1.00 11.79     0.085 A 
ENDBRANCH  40 146
ENDBRANCH  36  37
ENDBRANCH  33  36
ENDBRANCH  32  33
ENDBRANCH  31  32
ENDBRANCH  22  31
ENDBRANCH  17  18
ENDBRANCH  14  17
ENDBRANCH  13  14
ENDBRANCH  12  13
ENDBRANCH   8  12
BRANCH  10 154
ATOM    154  N9   DA D   8      36.559  33.512  22.648  1.00 10.83    -0.272 N 
ATOM    155  C4   DA D   8      37.321  33.963  23.697  1.00  9.99     0.170 A 
ATOM    156  N3   DA D   8      38.390  34.801  23.636  1.00 10.21    -0.205 NA
ATOM    157  C5   DA D   8      36.749  33.425  24.829  1.00 10.31     0.155 A 
ATOM    158  C2   DA D   8      38.855  35.056  24.834  1.00 10.39     0.202 A 
ATOM    159  N1   DA D   8      38.411  34.596  26.025  1.00 11.14    -0.202 NA
ATOM    160  C6   DA D   8      37.318  33.799  26.055  1.00 10.09     0.206 A 
ATOM    161  N6   DA D   8      36.835  33.459  27.241  1.00 11.37    -0.125 N 
ATOM    162  N7   DA D   8      35.662  32.601  24.486  1.00 10.47    -0.219 NA
ATOM    163  C8   DA D   8      35.612  32.685  23.174  1.00 11.39     0.182 A 
ENDBRANCH  10 154
ENDBRANCH   6   7
ENDBRANCH   3   6
ENDBRANCH   2   3
ENDBRANCH   1   2
BRANCH   1 164
HETATM  164  C4' BRU D   9      32.165  29.578  16.113  1.00 14.07     0.175 C 
HETATM  165  O4' BRU D   9      31.474  29.555  14.828  1.00 13.32    -0.333 OA
HETATM  166  C1' BRU D   9      30.442  28.573  14.866  1.00 13.84     0.211 C 
HETATM  167  C2' BRU D   9      30.638  27.745  16.119  1.00 12.11     0.087 C 
HETATM  168  C3' BRU D   9      32.001  28.169  16.644  1.00 15.00     0.161 C 
BRANCH 166 169
HETATM  169  N1  BRU D   9      30.626  27.681  13.717  1.00 13.67    -0.255 N 
HETATM  170  C2  BRU D   9      29.622  27.572  12.823  1.00 11.22     0.354 A 
HETATM  171  O2  BRU D   9      28.577  28.161  12.981  1.00 13.50    -0.244 OA
HETATM  172  N3  BRU D   9      29.878  26.760  11.726  1.00 11.85    -0.153 NA
HETATM  173  C4  BRU D   9      31.018  26.096  11.512  1.00 10.30     0.291 A 
HETATM  174  O4  BRU D   9      31.208  25.461  10.440  1.00 12.93    -0.264 OA
HETATM  175  C5  BRU D   9      31.980  26.263  12.569  1.00 12.08     0.110 A 
HETATM  176  C6  BRU D   9      31.762  27.017  13.593  1.00 13.06     0.094 A 
HETATM  177 BR   BRU D   9      33.718  25.203  12.177  1.00 15.13    -0.043 Br
ENDBRANCH 166 169
BRANCH 168 178
HETATM  178  O3' BRU D   9      32.007  28.152  18.064  1.00 13.15    -0.271 OA
BRANCH 178 179
ATOM    179  P    DG D  10      32.696  26.926  18.787  1.00 14.52     0.410 P 
ATOM    180  OP2  DG D  10      31.705  25.930  19.313  1.00 14.92    -0.624 OA
ATOM    181  OP1  DG D  10      33.793  26.456  17.871  1.00 16.08    -0.624 OA
BRANCH 179 182
ATOM    182  O5'  DG D  10      33.366  27.564  20.109  1.00 14.63    -0.268 OA
BRANCH 182 183
ATOM    183  C5'  DG D  10      32.580  27.984  21.212  1.00 14.28     0.187 C 
BRANCH 183 184
ATOM    184  C4'  DG D  10      33.468  28.616  22.255  1.00 14.53     0.175 C 
ATOM    185  C3'  DG D  10      34.834  27.973  22.435  1.00 16.36     0.161 C 
ATOM    186  C2'  DG D  10      34.604  27.010  23.598  1.00 15.07     0.087 C 
ATOM    187  C1'  DG D  10      33.667  27.840  24.446  1.00 13.41     0.210 C 
ATOM    188  O4'  DG D  10      32.810  28.523  23.543  1.00 13.85    -0.333 OA
BRANCH 185 189
ATOM    189  O3'  DG D  10      35.691  29.062  22.786  1.00 20.48    -0.271 OA
BRANCH 189 190
ATOM    190  P    DG D  11      37.287  28.869  22.822  1.00 20.71     0.410 P 
ATOM    191  OP2  DG D  11      37.782  27.736  22.009  1.00 22.10    -0.624 OA
ATOM    192  OP1  DG D  11      37.866  30.229  22.657  1.00 24.32    -0.624 OA
BRANCH 190 193
ATOM    193  O5'  DG D  11      37.558  28.458  24.325  1.00 19.33    -0.268 OA
BRANCH 193 194
ATOM    194  C5'  DG D  11      38.352  27.311  24.604  1.00 18.66     0.187 C 
BRANCH 194 195
ATOM    195  C4'  DG D  11      39.740  27.757  24.990  1.00 18.71     0.175 C 
ATOM    196  C3'  DG D  11      40.831  26.968  24.297  1.00 19.69     0.161 C 
ATOM    197  C2'  DG D  11      41.118  25.850  25.284  1.00 18.26     0.087 C 
ATOM    198  C1'  DG D  11      40.982  26.595  26.606  1.00 15.98     0.210 C 
ATOM    199  O4'  DG D  11      40.019  27.617  26.402  1.00 17.85    -0.333 OA
BRANCH 196 200
ATOM    200  O3'  DG D  11      41.934  27.859  24.240  1.00 24.65    -0.271 OA
BRANCH 200 201
ATOM    201  P    DT D  12      42.463  28.341  22.849  1.00 28.19     0.410 P 
ATOM    202  OP2  DT D  12      43.743  29.083  22.909  1.00 27.85    -0.624 OA
ATOM    203  OP1  DT D  12      42.312  27.126  21.997  1.00 29.91    -0.624 OA
BRANCH 201 204
ATOM    204  O5'  DT D  12      41.420  29.445  22.404  1.00 28.66    -0.268 OA
BRANCH 204 205
ATOM    205  C5'  DT D  12      40.904  29.348  21.115  1.00 29.00     0.187 C 
BRANCH 205 206
ATOM    206  C4'  DT D  12      41.447  30.436  20.247  1.00 28.07     0.175 C 
ATOM    207  C3'  DT D  12      40.800  31.801  20.368  1.00 29.44     0.161 C 
ATOM    208  C2'  DT D  12      40.237  32.058  18.976  1.00 29.37     0.087 C 
ATOM    209  C1'  DT D  12      41.137  31.193  18.081  1.00 27.26     0.211 C 
ATOM    210  O4'  DT D  12      41.443  30.073  18.858  1.00 26.37    -0.333 OA
BRANCH 207 211
ATOM    211  O3'  DT D  12      41.924  32.587  20.665  1.00 31.26    -0.271 OA
BRANCH 211 212
ATOM    212  P    DA D  13      42.241  33.030  22.156  1.00 34.05     0.410 P 
ATOM    213  OP2  DA D  13      41.057  32.732  23.017  1.00 31.89    -0.624 OA
ATOM    214  OP1  DA D  13      43.536  32.385  22.420  1.00 33.32    -0.624 OA
BRANCH 212 215
ATOM    215  O5'  DA D  13      42.492  34.580  21.953  1.00 31.02    -0.268 OA
BRANCH 215 216
ATOM    216  C5'  DA D  13      41.469  35.401  21.391  1.00 27.53     0.187 C 
BRANCH 216 217
ATOM    217  C4'  DA D  13      41.982  36.072  20.141  1.00 25.33     0.175 C 
ATOM    218  O4'  DA D  13      41.463  35.427  18.951  1.00 22.92    -0.333 OA
ATOM    219  C1'  DA D  13      40.739  36.359  18.143  1.00 20.98     0.210 C 
ATOM    220  C2'  DA D  13      40.414  37.546  19.061  1.00 23.30     0.087 C 
ATOM    221  C3'  DA D  13      41.596  37.551  20.021  1.00 26.45     0.161 C 
BRANCH 219 222
ATOM    222  N9   DA D  13      39.573  35.647  17.637  1.00 17.31    -0.272 N 
ATOM    223  C8   DA D  13      38.361  35.551  18.227  1.00 17.58     0.182 A 
ATOM    224  N7   DA D  13      37.529  34.747  17.619  1.00 17.72    -0.219 NA
ATOM    225  C5   DA D  13      38.226  34.315  16.521  1.00 14.33     0.155 A 
ATOM    226  C6   DA D  13      37.905  33.455  15.458  1.00 14.45     0.206 A 
ATOM    227  C4   DA D  13      39.500  34.873  16.506  1.00 15.76     0.170 A 
ATOM    228  N6   DA D  13      36.723  32.789  15.331  1.00 15.52    -0.125 N 
ATOM    229  N1   DA D  13      38.838  33.281  14.522  1.00 14.59    -0.202 NA
ATOM    230  C2   DA D  13      40.031  33.876  14.647  1.00 15.74     0.202 A 
ATOM    231  N3   DA D  13      40.465  34.675  15.610  1.00 15.60    -0.205 NA
ENDBRANCH 219 222
BRANCH 221 232
ATOM    232  O3'  DA D  13      42.677  38.253  19.441  1.00 30.43    -0.271 OA
BRANCH 232 233
ATOM    233  P    DA D  14      42.999  39.731  19.940  1.00 32.07     0.410 P 
ATOM    234  OP2  DA D  14      42.510  39.881  21.303  1.00 33.16    -0.624 OA
ATOM    235  OP1  DA D  14      44.434  39.955  19.622  1.00 33.96    -0.624 OA
BRANCH 233 236
ATOM    236  O5'  DA D  14      42.156  40.612  18.950  1.00 31.87    -0.268 OA
BRANCH 236 237
ATOM    237  C5'  DA D  14      41.312  41.618  19.483  1.00 30.81     0.187 C 
BRANCH 237 238
ATOM    238  C4'  DA D  14      39.887  41.136  19.453  1.00 31.39     0.175 C 
ATOM    239  O4'  DA D  14      39.367  41.047  20.804  1.00 30.66    -0.333 OA
ATOM    240  C1'  DA D  14      38.151  41.770  20.858  1.00 28.20     0.210 C 
ATOM    241  C2'  DA D  14      38.294  42.872  19.827  1.00 29.16     0.087 C 
ATOM    242  C3'  DA D  14      38.952  42.085  18.711  1.00 31.09     0.161 C 
BRANCH 240 243
ATOM    243  N9   DA D  14      37.934  42.197  22.225  1.00 24.41    -0.272 N 
ATOM    244  C4   DA D  14      38.775  43.071  22.856  1.00 21.62     0.170 A 
ATOM    245  N3   DA D  14      39.848  43.689  22.312  1.00 18.94    -0.205 NA
ATOM    246  C5   DA D  14      38.327  43.145  24.147  1.00 22.12     0.155 A 
ATOM    247  C2   DA D  14      40.491  44.410  23.253  1.00 18.83     0.202 A 
ATOM    248  N1   DA D  14      40.159  44.568  24.518  1.00 18.79    -0.202 NA
ATOM    249  C6   DA D  14      39.045  43.946  25.002  1.00 19.52     0.206 A 
ATOM    250  N6   DA D  14      38.684  44.134  26.256  1.00 21.07    -0.125 N 
ATOM    251  N7   DA D  14      37.192  42.356  24.332  1.00 24.53    -0.219 NA
ATOM    252  C8   DA D  14      36.988  41.836  23.146  1.00 24.70     0.182 A 
ENDBRANCH 240 243
BRANCH 242 253
ATOM    253  O3'  DA D  14      38.005  41.262  18.068  1.00 31.14    -0.271 OA
BRANCH 253 254
ATOM    254  P    DC D  15      38.233  40.796  16.547  1.00 30.59     0.410 P 
ATOM    255  OP1  DC D  15      38.655  39.368  16.621  1.00 31.75    -0.624 OA
ATOM    256  OP2  DC D  15      39.034  41.782  15.759  1.00 29.87    -0.624 OA
BRANCH 254 257
ATOM    257  O5'  DC D  15      36.710  40.809  16.051  1.00 30.76    -0.268 OA
BRANCH 257 258
ATOM    258  C5'  DC D  15      36.149  39.633  15.408  1.00 28.28     0.187 C 
BRANCH 258 259
ATOM    259  C4'  DC D  15      35.248  38.863  16.356  1.00 28.15     0.175 C 
ATOM    260  O4'  DC D  15      34.718  39.716  17.396  1.00 23.18    -0.333 OA
ATOM    261  C1'  DC D  15      33.291  39.681  17.405  1.00 22.58     0.211 C 
ATOM    262  C2'  DC D  15      32.875  39.075  16.075  1.00 24.52     0.087 C 
ATOM    263  C3'  DC D  15      34.045  38.175  15.727  1.00 28.37     0.161 C 
BRANCH 261 264
ATOM    264  N1   DC D  15      32.823  41.062  17.545  1.00 18.64    -0.256 N 
ATOM    265  C6   DC D  15      33.575  42.104  17.074  1.00 16.47     0.085 A 
ATOM    266  C5   DC D  15      33.205  43.367  17.265  1.00 15.01     0.060 A 
ATOM    267  C4   DC D  15      31.984  43.587  18.006  1.00 13.33     0.190 A 
ATOM    268  N3   DC D  15      31.212  42.574  18.391  1.00 13.89    -0.171 NA
ATOM    269  N4   DC D  15      31.627  44.815  18.331  1.00 15.28    -0.127 N 
ATOM    270  C2   DC D  15      31.594  41.311  18.195  1.00 18.12     0.353 A 
ATOM    271  O2   DC D  15      30.917  40.332  18.583  1.00 20.47    -0.244 OA
ENDBRANCH 261 264
BRANCH 263 272
ATOM    272  O3'  DC D  15      33.844  36.905  16.329  1.00 31.34    -0.271 OA
BRANCH 272 273
ATOM    273  P    DG D  16      33.985  35.600  15.440  1.00 32.78     0.410 P 
ATOM    274  OP1  DG D  16      33.915  34.429  16.362  1.00 34.59    -0.624 OA
ATOM    275  OP2  DG D  16      35.174  35.793  14.573  1.00 31.45    -0.624 OA
BRANCH 273 276
ATOM    276  O5'  DG D  16      32.692  35.650  14.526  1.00 31.83    -0.268 OA
BRANCH 276 277
ATOM    277  C5'  DG D  16      31.396  35.681  15.102  1.00 31.48     0.187 C 
BRANCH 277 278
ATOM    278  C4'  DG D  16      30.594  34.510  14.594  1.00 29.56     0.178 C 
ATOM    279  C3'  DG D  16      29.074  34.724  14.592  1.00 29.50     0.186 C 
ATOM    280  C2'  DG D  16      28.623  33.950  15.823  1.00 28.21     0.090 C 
ATOM    281  O3'  DG D  16      28.515  34.068  13.432  1.00 31.52    -0.221 OA
ATOM    282  C1'  DG D  16      29.574  32.785  15.760  1.00 24.75     0.210 C 
ATOM    283  O4'  DG D  16      30.820  33.359  15.436  1.00 27.49    -0.333 OA
BRANCH 282 284
ATOM    284  N9   DG D  16      29.741  32.038  16.994  1.00 21.33    -0.271 N 
ATOM    285  C4   DG D  16      28.993  30.963  17.380  1.00 19.88     0.188 A 
ATOM    286  N3   DG D  16      27.994  30.388  16.656  1.00 18.33    -0.038 NA
ATOM    287  C5   DG D  16      29.466  30.618  18.625  1.00 17.85     0.176 A 
ATOM    288  C2   DG D  16      27.446  29.385  17.281  1.00 15.82     0.773 A 
ATOM    289  N1   DG D  16      27.834  28.978  18.552  1.00 16.33    -0.016 NA
ATOM    290  N2   DG D  16      26.447  28.663  16.681  1.00 16.23     0.062 N 
ATOM    291  C6   DG D  16      28.857  29.546  19.305  1.00 15.94     0.316 A 
ATOM    292  O6   DG D  16      29.108  29.076  20.449  1.00 18.70    -0.263 OA
ATOM    293  N7   DG D  16      30.531  31.436  18.986  1.00 18.48    -0.217 NA
ATOM    294  C8   DG D  16      30.649  32.270  17.991  1.00 19.50     0.182 A 
ENDBRANCH 282 284
ENDBRANCH 277 278
ENDBRANCH 276 277
ENDBRANCH 273 276
ENDBRANCH 272 273
ENDBRANCH 263 272
ENDBRANCH 258 259
ENDBRANCH 257 258
ENDBRANCH 254 257
ENDBRANCH 253 254
ENDBRANCH 242 253
ENDBRANCH 237 238
ENDBRANCH 236 237
ENDBRANCH 233 236
ENDBRANCH 232 233
ENDBRANCH 221 232
ENDBRANCH 216 217
ENDBRANCH 215 216
ENDBRANCH 212 215
ENDBRANCH 211 212
ENDBRANCH 207 211
BRANCH 209 295
ATOM    295  N1   DT D  12      40.541  30.666  16.848  1.00 25.54    -0.256 N 
ATOM    296  C6   DT D  12      41.256  30.623  15.669  1.00 22.97     0.083 A 
ATOM    297  C5   DT D  12      40.732  30.217  14.496  1.00 22.23     0.053 A 
ATOM    298  C4   DT D  12      39.357  29.804  14.480  1.00 20.03     0.280 A 
ATOM    299  C7   DT D  12      41.494  30.158  13.211  1.00 23.27     0.038 C 
ATOM    300  O4   DT D  12      38.779  29.444  13.458  1.00 18.53    -0.265 OA
ATOM    301  N3   DT D  12      38.699  29.836  15.711  1.00 19.51    -0.153 NA
ATOM    302  C2   DT D  12      39.218  30.250  16.907  1.00 22.25     0.354 A 
ATOM    303  O2   DT D  12      38.570  30.259  17.948  1.00 24.24    -0.244 OA
ENDBRANCH 209 295
ENDBRANCH 205 206
ENDBRANCH 204 205
ENDBRANCH 201 204
ENDBRANCH 200 201
ENDBRANCH 196 200
BRANCH 198 304
ATOM    304  N9   DG D  11      40.507  25.799  27.733  1.00 15.12    -0.271 N 
ATOM    305  C8   DG D  11      39.387  25.003  27.780  1.00 13.13     0.182 A 
ATOM    306  N7   DG D  11      39.164  24.502  28.967  1.00 13.46    -0.217 NA
ATOM    307  C5   DG D  11      40.199  25.001  29.751  1.00 11.37     0.176 A 
ATOM    308  C6   DG D  11      40.447  24.821  31.122  1.00 10.16     0.316 A 
ATOM    309  C4   DG D  11      41.055  25.777  29.007  1.00 12.33     0.188 A 
ATOM    310  O6   DG D  11      39.759  24.233  31.928  1.00 10.86    -0.263 OA
ATOM    311  N1   DG D  11      41.637  25.453  31.512  1.00 10.07    -0.016 NA
ATOM    312  C2   DG D  11      42.455  26.203  30.671  1.00 11.41     0.773 A 
ATOM    313  N2   DG D  11      43.604  26.724  31.198  1.00 10.83     0.062 N 
ATOM    314  N3   DG D  11      42.180  26.417  29.397  1.00 11.83    -0.038 NA
ENDBRANCH 198 304
ENDBRANCH 194 195
ENDBRANCH 193 194
ENDBRANCH 190 193
ENDBRANCH 189 190
ENDBRANCH 185 189
BRANCH 187 315
ATOM    315  N9   DG D  10      32.845  27.022  25.326  1.00 11.23    -0.271 N 
ATOM    316  C8   DG D  10      31.519  26.666  25.159  1.00 12.20     0.182 A 
ATOM    317  N7   DG D  10      31.093  25.847  26.098  1.00 12.66    -0.217 NA
ATOM    318  C5   DG D  10      32.191  25.692  26.938  1.00 10.47     0.176 A 
ATOM    319  C4   DG D  10      33.270  26.412  26.479  1.00 10.52     0.188 A 
ATOM    320  C6   DG D  10      32.348  24.933  28.160  1.00 11.39     0.316 A 
ATOM    321  N3   DG D  10      34.497  26.519  27.025  1.00 10.98    -0.038 NA
ATOM    322  C2   DG D  10      34.628  25.773  28.116  1.00  8.78     0.773 A 
ATOM    323  N1   DG D  10      33.621  25.029  28.669  1.00  9.45    -0.016 NA
ATOM    324  N2   DG D  10      35.799  25.696  28.740  1.00 10.60     0.062 N 
ATOM    325  O6   DG D  10      31.496  24.255  28.782  1.00 10.46    -0.263 OA
ENDBRANCH 187 315
ENDBRANCH 183 184
ENDBRANCH 182 183
ENDBRANCH 179 182
ENDBRANCH 178 179
ENDBRANCH 168 178
ENDBRANCH   1 164
TORSDOF 92
ENDMDL
MODEL 3
REMARK VINA RESULT:      -0.2      3.809     11.807
REMARK WARNING: 32 MAX_TORS EXCEEDED!!!
REMARK  92 active torsions:
REMARK  status: ('A' for Active; 'I' for Inactive)
REMARK    1  A    between atoms: C5'_1  and  C4'_3 
REMARK    2  A    between atoms: C3'_5  and  O3'_6 
REMARK    3  A    between atoms: O3'_6  and  P_17 
REMARK    4  A    between atoms: C1'_8  and  N1_9 
REMARK    5  A    between atoms: P_17  and  O5'_19 
REMARK    6  A    between atoms: C5'_18  and  O5'_19 
REMARK    7  A    between atoms: C5'_18  and  C4'_20 
REMARK    8  A    between atoms: C3'_22  and  O3'_23 
REMARK    9  A    between atoms: O3'_23  and  P_39 
REMARK   10  A    between atoms: C1'_25  and  N9_36 
REMARK   11  A    between atoms: P_39  and  O5'_41 
REMARK   12  A    between atoms: C5'_40  and  O5'_41 
REMARK   13  A    between atoms: C5'_40  and  C4'_42 
REMARK   14  A    between atoms: C3'_44  and  O3'_45 
REMARK   15  A    between atoms: O3'_45  and  P_59 
REMARK   16  A    between atoms: C1'_47  and  N1_48 
REMARK   17  A    between atoms: P_59  and  O5'_61 
REMARK   18  A    between atoms: C5'_60  and  C4'_62 
REMARK   19  A    between atoms: C5'_60  and  O5'_61 
REMARK   20  A    between atoms: C3'_64  and  O3'_65 
REMARK   21  A    between atoms: O3'_65  and  P_79 
REMARK   22  A    between atoms: C1'_67  and  N1_68 
REMARK   23  A    between atoms: P_79  and  O5'_81 
REMARK   24  A    between atoms: C5'_80  and  C4'_82 
REMARK   25  A    between atoms: C5'_80  and  O5'_81 
REMARK   26  A    between atoms: C3'_84  and  O3'_85 
REMARK   27  A    between atoms: O3'_85  and  P_100 
REMARK   28  A    between atoms: C1'_87  and  N9_97 
REMARK   29  A    between atoms: P_100  and  O5'_102 
REMARK   30  A    between atoms: C5'_101  and  C4'_103 
REMARK   31  A    between atoms: C5'_101  and  O5'_102 
REMARK   32  A    between atoms: C3'_105  and  O3'_106 
REMARK   33  A    between atoms: O3'_106  and  P_119 
REMARK   34  A    between atoms: C1'_108  and  N1_109 
REMARK   35  A    between atoms: P_119  and  O5'_121 
REMARK   36  A    between atoms: C5'_120  and  O5'_121 
REMARK   37  A    between atoms: C5'_120  and  C4'_122 
REMARK   38  A    between atoms: C3'_124  and  O3'_125 
REMARK   39  A    between atoms: O3'_125  and  P_138 
REMARK   40  A    between atoms: C1'_127  and  N1_128 
REMARK   41  A    between atoms: P_138  and  O5'_140 
REMARK   42  A    between atoms: C5'_139  and  C4'_141 
REMARK   43  A    between atoms: C5'_139  and  O5'_140 
REMARK   44  A    between atoms: C3'_143  and  O3'_144 
REMARK   45  A    between atoms: O3'_144  and  P_159 
REMARK   46  A    between atoms: C1'_146  and  N9_156 
REMARK   47  A    between atoms: P_159  and  O5'_161 
REMARK   48  A    between atoms: C5'_160  and  O5'_161 
REMARK   49  A    between atoms: C5'_160  and  C4'_162 
REMARK   50  A    between atoms: C3'_164  and  O3'_165 
REMARK   51  A    between atoms: O3'_165  and  P_179 
REMARK   52  A    between atoms: C1'_167  and  N1_168 
REMARK   53  A    between atoms: P_179  and  O5'_181 
REMARK   54  A    between atoms: C5'_180  and  C4'_182 
REMARK   55  A    between atoms: C5'_180  and  O5'_181 
REMARK   56  A    between atoms: C3'_184  and  O3'_185 
REMARK   57  A    between atoms: O3'_185  and  P_201 
REMARK   58  A    between atoms: C1'_187  and  N9_198 
REMARK   59  A    between atoms: P_201  and  O5'_203 
REMARK   60  A    between atoms: C5'_202  and  O5'_203 
REMARK   61  A    between atoms: C5'_202  and  C4'_204 
REMARK   62  A    between atoms: C3'_206  and  O3'_207 
REMARK   63  A    between atoms: O3'_207  and  P_223 
REMARK   64  A    between atoms: C1'_209  and  N9_220 
REMARK   65  A    between atoms: P_223  and  O5'_225 
REMARK   66  A    between atoms: C5'_224  and  O5'_225 
REMARK   67  A    between atoms: C5'_224  and  C4'_226 
REMARK   68  A    between atoms: C3'_228  and  O3'_229 
REMARK   69  A    between atoms: O3'_229  and  P_243 
REMARK   70  A    between atoms: C1'_231  and  N1_232 
REMARK   71  A    between atoms: P_243  and  O5'_245 
REMARK   72  A    between atoms: C5'_244  and  C4'_246 
REMARK   73  A    between atoms: C5'_244  and  O5'_245 
REMARK   74  A    between atoms: C3'_248  and  O3'_249 
REMARK   75  A    between atoms: O3'_249  and  P_264 
REMARK   76  A    between atoms: C1'_251  and  N9_261 
REMARK   77  A    between atoms: P_264  and  O5'_266 
REMARK   78  A    between atoms: C5'_265  and  C4'_267 
REMARK   79  A    between atoms: C5'_265  and  O5'_266 
REMARK   80  A    between atoms: C3'_269  and  O3'_270 
REMARK   81  A    between atoms: O3'_270  and  P_285 
REMARK   82  A    between atoms: C1'_272  and  N9_282 
REMARK   83  A    between atoms: P_285  and  O5'_287 
REMARK   84  A    between atoms: C5'_286  and  O5'_287 
REMARK   85  A    between atoms: C5'_286  and  C4'_288 
REMARK   86  A    between atoms: C3'_290  and  O3'_291 
REMARK   87  A    between atoms: O3'_291  and  P_304 
REMARK   88  A    between atoms: C1'_293  and  N1_294 
REMARK   89  A    between atoms: P_304  and  O5'_306 
REMARK   90  A    between atoms: C5'_305  and  C4'_307 
REMARK   91  A    between atoms: C5'_305  and  O5'_306 
REMARK   92  A    between atoms: C1'_312  and  N9_323 
ROOT
HETATM    1  C5' BRU D   9      37.668  41.987  14.844  1.00 14.48     0.187 C 
ENDROOT
BRANCH   1   2
HETATM    2  O5' BRU D   9      38.471  41.564  15.928  1.00 12.82    -0.268 OA
BRANCH   2   3
HETATM    3  P   BRU D   9      38.637  42.482  17.206  1.00 11.11     0.410 P 
HETATM    4  OP1 BRU D   9      38.813  43.922  16.787  1.00 14.53    -0.624 OA
HETATM    5  OP2 BRU D   9      37.493  42.107  18.080  1.00 12.75    -0.624 OA
BRANCH   3   6
ATOM      6  O3'  DA D   8      40.064  42.075  17.761  1.00 11.43    -0.271 OA
BRANCH   6   7
ATOM      7  C3'  DA D   8      40.406  42.428  19.086  1.00 10.57     0.161 C 
ATOM      8  C4'  DA D   8      40.098  41.255  20.011  1.00 11.52     0.175 C 
ATOM      9  O4'  DA D   8      39.792  41.844  21.286  1.00 11.40    -0.333 OA
ATOM     10  C1'  DA D   8      39.393  43.214  21.114  1.00 11.23     0.210 C 
ATOM     11  C2'  DA D   8      39.502  43.527  19.623  1.00 12.23     0.087 C 
BRANCH   8  12
ATOM     12  C5'  DA D   8      41.207  40.250  20.190  1.00 13.06     0.187 C 
BRANCH  12  13
ATOM     13  O5'  DA D   8      40.784  39.195  21.019  1.00 11.03    -0.268 OA
BRANCH  13  14
ATOM     14  P    DA D   8      41.488  38.990  22.455  1.00 12.25     0.410 P 
ATOM     15  OP2  DA D   8      42.419  37.816  22.301  1.00 11.74    -0.624 OA
ATOM     16  OP1  DA D   8      40.466  38.963  23.512  1.00 15.55    -0.624 OA
BRANCH  14  17
ATOM     17  O3'  DC D   7      42.355  40.317  22.678  1.00 12.10    -0.271 OA
BRANCH  17  18
ATOM     18  C3'  DC D   7      43.768  40.196  22.939  1.00 11.74     0.161 C 
ATOM     19  C2'  DC D   7      44.635  41.032  21.999  1.00 11.76     0.087 C 
ATOM     20  C1'  DC D   7      45.883  41.309  22.844  1.00 12.42     0.211 C 
ATOM     21  O4'  DC D   7      45.473  41.199  24.202  1.00 12.34    -0.333 OA
ATOM     22  C4'  DC D   7      44.070  40.822  24.283  1.00 11.56     0.175 C 
BRANCH  20  23
ATOM     23  N1   DC D   7      46.863  40.223  22.603  1.00 11.09    -0.256 N 
ATOM     24  C2   DC D   7      48.178  40.603  22.331  1.00  9.80     0.353 A 
ATOM     25  O2   DC D   7      48.401  41.825  22.259  1.00 10.91    -0.244 OA
ATOM     26  N3   DC D   7      49.146  39.673  22.142  1.00  9.76    -0.171 NA
ATOM     27  C4   DC D   7      48.836  38.387  22.162  1.00 11.68     0.190 A 
ATOM     28  N4   DC D   7      49.830  37.476  21.959  1.00 10.83    -0.127 N 
ATOM     29  C5   DC D   7      47.477  37.945  22.411  1.00 10.32     0.060 A 
ATOM     30  C6   DC D   7      46.530  38.898  22.626  1.00 11.95     0.085 A 
ENDBRANCH  20  23
BRANCH  22  31
ATOM     31  C5'  DC D   7      43.860  39.924  25.470  1.00 14.18     0.187 C 
BRANCH  31  32
ATOM     32  O5'  DC D   7      45.087  39.858  26.209  1.00 16.43    -0.268 OA
BRANCH  32  33
ATOM     33  P    DC D   7      45.061  40.119  27.776  1.00 18.54     0.410 P 
ATOM     34  OP1  DC D   7      45.964  41.229  28.045  1.00 22.71    -0.624 OA
ATOM     35  OP2  DC D   7      43.655  40.156  28.169  1.00 19.79    -0.624 OA
BRANCH  33  36
ATOM     36  O3'  DC D   6      45.856  38.834  28.344  1.00 17.13    -0.271 OA
BRANCH  36  37
ATOM     37  C3'  DC D   6      46.911  38.261  27.606  1.00 14.94     0.161 C 
ATOM     38  C4'  DC D   6      46.449  36.879  27.160  1.00 15.77     0.175 C 
ATOM     39  O4'  DC D   6      46.958  35.977  28.158  1.00 13.81    -0.333 OA
ATOM     40  C1'  DC D   6      47.512  36.721  29.207  1.00 12.86     0.211 C 
ATOM     41  C2'  DC D   6      48.059  37.963  28.552  1.00 14.65     0.087 C 
BRANCH  38  42
ATOM     42  C5'  DC D   6      46.967  36.493  25.796  1.00 18.13     0.187 C 
BRANCH  42  43
ATOM     43  O5'  DC D   6      47.262  35.099  25.777  1.00 19.27    -0.268 OA
BRANCH  43  44
ATOM     44  P    DC D   6      48.375  34.520  24.779  1.00 19.84     0.410 P 
ATOM     45  OP1  DC D   6      49.407  35.586  24.702  1.00 24.35    -0.624 OA
ATOM     46  OP2  DC D   6      48.744  33.181  25.236  1.00 20.92    -0.624 OA
BRANCH  44  47
ATOM     47  O3'  DA D   5      47.595  34.509  23.391  1.00 19.93    -0.271 OA
BRANCH  47  48
ATOM     48  C3'  DA D   5      46.272  33.982  23.312  1.00 16.89     0.161 C 
ATOM     49  C4'  DA D   5      46.317  32.903  22.234  1.00 17.32     0.175 C 
ATOM     50  O4'  DA D   5      45.947  33.561  21.018  1.00 18.24    -0.333 OA
ATOM     51  C1'  DA D   5      45.550  34.918  21.289  1.00 15.77     0.210 C 
ATOM     52  C2'  DA D   5      45.264  34.997  22.775  1.00 16.34     0.087 C 
BRANCH  49  53
ATOM     53  C5'  DA D   5      45.480  31.674  22.513  1.00 17.61     0.187 C 
BRANCH  53  54
ATOM     54  O5'  DA D   5      45.290  31.535  23.919  1.00 19.33    -0.268 OA
BRANCH  54  55
ATOM     55  P    DA D   5      45.648  30.171  24.631  1.00 20.74     0.410 P 
ATOM     56  OP2  DA D   5      46.475  29.309  23.754  1.00 23.47    -0.624 OA
ATOM     57  OP1  DA D   5      44.370  29.649  25.218  1.00 23.99    -0.624 OA
BRANCH  55  58
ATOM     58  O3'  DT D   4      46.490  30.660  25.918  1.00 19.59    -0.271 OA
BRANCH  58  59
ATOM     59  C3'  DT D   4      45.838  30.975  27.168  1.00 18.10     0.161 C 
ATOM     60  C4'  DT D   4      46.087  32.461  27.475  1.00 15.82     0.175 C 
ATOM     61  O4'  DT D   4      47.110  32.502  28.487  1.00 16.38    -0.333 OA
ATOM     62  C1'  DT D   4      47.634  31.203  28.746  1.00 15.63     0.211 C 
ATOM     63  C2'  DT D   4      46.496  30.250  28.343  1.00 16.56     0.087 C 
BRANCH  60  64
ATOM     64  C5'  DT D   4      44.903  33.249  27.996  1.00 17.08     0.187 C 
BRANCH  64  65
ATOM     65  O5'  DT D   4      44.256  32.523  29.061  1.00 15.07    -0.268 OA
BRANCH  65  66
ATOM     66  P    DT D   4      43.817  33.288  30.391  1.00 15.11     0.410 P 
ATOM     67  OP1  DT D   4      44.952  34.194  30.828  1.00 18.00    -0.624 OA
ATOM     68  OP2  DT D   4      42.477  33.874  30.088  1.00 17.03    -0.624 OA
BRANCH  66  69
HETATM   69  O3' BRU D   3      43.778  32.138  31.450  1.00 15.24    -0.271 OA
BRANCH  69  70
HETATM   70  C3' BRU D   3      43.947  30.766  31.076  1.00 13.22     0.161 C 
HETATM   71  C4' BRU D   3      42.523  30.212  31.053  1.00 14.89     0.175 C 
HETATM   72  O4' BRU D   3      42.545  28.987  31.812  1.00 16.05    -0.333 OA
HETATM   73  C1' BRU D   3      43.541  29.144  32.816  1.00 15.34     0.211 C 
HETATM   74  C2' BRU D   3      44.681  29.862  32.077  1.00 12.90     0.087 C 
BRANCH  71  75
HETATM   75  C5' BRU D   3      41.835  30.027  29.725  1.00 17.61     0.187 C 
BRANCH  75  76
HETATM   76  O5' BRU D   3      41.459  28.678  29.523  1.00 15.66    -0.268 OA
BRANCH  76  77
HETATM   77  P   BRU D   3      40.232  28.394  28.538  1.00 16.77     0.410 P 
HETATM   78  OP1 BRU D   3      40.205  26.920  28.318  1.00 18.57    -0.624 OA
HETATM   79  OP2 BRU D   3      39.028  29.111  29.041  1.00 18.18    -0.624 OA
BRANCH  77  80
ATOM     80  O3'  DG D   2      40.663  29.061  27.158  1.00 17.32    -0.271 OA
BRANCH  80  81
ATOM     81  C3'  DG D   2      39.760  29.869  26.422  1.00 15.47     0.161 C 
ATOM     82  C2'  DG D   2      40.541  30.798  25.482  1.00 16.87     0.087 C 
ATOM     83  C1'  DG D   2      40.942  29.849  24.354  1.00 16.11     0.210 C 
ATOM     84  O4'  DG D   2      39.884  28.886  24.269  1.00 18.37    -0.333 OA
ATOM     85  C4'  DG D   2      39.072  28.895  25.464  1.00 18.34     0.175 C 
BRANCH  83  86
ATOM     86  N9   DG D   2      41.058  30.457  23.030  1.00 16.03    -0.272 N 
ATOM     87  C8   DG D   2      40.284  31.458  22.493  1.00 14.57     0.182 A 
ATOM     88  N7   DG D   2      40.569  31.723  21.240  1.00 16.34    -0.217 NA
ATOM     89  C5   DG D   2      41.614  30.833  20.937  1.00 13.99     0.175 A 
ATOM     90  C6   DG D   2      42.325  30.630  19.716  1.00 12.33     0.302 A 
ATOM     91  C4   DG D   2      41.949  30.074  22.045  1.00 12.94     0.172 A 
ATOM     92  O6   DG D   2      42.147  31.202  18.656  1.00 15.71    -0.263 OA
ATOM     93  N1   DG D   2      43.290  29.653  19.831  1.00 12.85    -0.174 NA
ATOM     94  C2   DG D   2      43.572  28.946  20.984  1.00 12.30     0.242 A 
ATOM     95  N2   DG D   2      44.602  28.019  20.922  1.00 15.13    -0.059 NA
ATOM     96  N3   DG D   2      42.908  29.127  22.154  1.00 14.89    -0.195 NA
ENDBRANCH  83  86
BRANCH  85  97
ATOM     97  C5'  DG D   2      37.636  29.212  25.121  1.00 20.11     0.187 C 
BRANCH  97  98
ATOM     98  O5'  DG D   2      37.498  29.482  23.731  1.00 21.44    -0.268 OA
BRANCH  98  99
ATOM     99  P    DG D   2      36.324  30.401  23.196  1.00 23.19     0.410 P 
ATOM    100  OP1  DG D   2      35.235  29.444  22.844  1.00 25.33    -0.624 OA
ATOM    101  OP2  DG D   2      36.041  31.550  24.070  1.00 23.21    -0.624 OA
BRANCH  99 102
ATOM    102  O3'  DC D   1      36.869  31.017  21.823  1.00 26.59    -0.271 OA
BRANCH 102 103
ATOM    103  C3'  DC D   1      36.276  30.590  20.605  1.00 27.88     0.161 C 
ATOM    104  C2'  DC D   1      36.018  31.821  19.759  1.00 26.06     0.087 C 
ATOM    105  C1'  DC D   1      37.419  32.109  19.271  1.00 24.51     0.211 C 
ATOM    106  O4'  DC D   1      38.008  30.823  19.020  1.00 29.50    -0.333 OA
ATOM    107  C4'  DC D   1      37.339  29.834  19.818  1.00 29.48     0.178 C 
BRANCH 105 108
ATOM    108  N1   DC D   1      37.571  32.893  18.039  1.00 21.38    -0.256 N 
ATOM    109  C6   DC D   1      36.756  32.695  16.957  1.00 19.62     0.085 A 
ATOM    110  C5   DC D   1      36.968  33.360  15.804  1.00 19.43     0.060 A 
ATOM    111  C4   DC D   1      38.043  34.304  15.782  1.00 17.00     0.190 A 
ATOM    112  N4   DC D   1      38.300  35.014  14.683  1.00 18.52    -0.127 N 
ATOM    113  N3   DC D   1      38.821  34.517  16.855  1.00 17.32    -0.171 NA
ATOM    114  C2   DC D   1      38.606  33.820  17.980  1.00 18.49     0.353 A 
ATOM    115  O2   DC D   1      39.320  33.982  18.976  1.00 18.51    -0.244 OA
ENDBRANCH 105 108
BRANCH 107 116
ATOM    116  C5'  DC D   1      36.830  28.707  18.947  1.00 31.78     0.214 C 
ATOM    117  O5'  DC D   1      35.402  28.748  18.862  1.00 34.90    -0.218 OA
ENDBRANCH 107 116
ENDBRANCH 102 103
ENDBRANCH  99 102
ENDBRANCH  98  99
ENDBRANCH  97  98
ENDBRANCH  85  97
ENDBRANCH  80  81
ENDBRANCH  77  80
ENDBRANCH  76  77
ENDBRANCH  75  76
ENDBRANCH  71  75
BRANCH  73 118
HETATM  118  N1  BRU D   3      43.897  27.810  33.304  1.00 13.25    -0.255 N 
HETATM  119  C2  BRU D   3      44.699  27.663  34.457  1.00 11.90     0.354 A 
HETATM  120  O2  BRU D   3      45.153  28.611  35.069  1.00 16.11    -0.244 OA
HETATM  121  N3  BRU D   3      44.943  26.385  34.849  1.00 12.15    -0.153 NA
HETATM  122  C4  BRU D   3      44.475  25.274  34.265  1.00 12.48     0.291 A 
HETATM  123  O4  BRU D   3      44.774  24.129  34.659  1.00 16.38    -0.264 OA
HETATM  124  C5  BRU D   3      43.702  25.552  33.104  1.00 14.67     0.110 A 
HETATM  125  C6  BRU D   3      43.457  26.758  32.681  1.00 13.17     0.094 A 
HETATM  126 BR   BRU D   3      42.970  23.910  32.007  1.00 24.07    -0.043 Br
ENDBRANCH  73 118
ENDBRANCH  69  70
ENDBRANCH  66  69
ENDBRANCH  65  66
ENDBRANCH  64  65
ENDBRANCH  60  64
BRANCH  62 127
ATOM    127  N1   DT D   4      48.076  31.208  30.171  1.00 13.98    -0.256 N 
ATOM    128  C2   DT D   4      49.177  30.474  30.514  1.00 13.56     0.354 A 
ATOM    129  O2   DT D   4      49.763  29.778  29.687  1.00 16.57    -0.244 OA
ATOM    130  N3   DT D   4      49.596  30.582  31.835  1.00 12.35    -0.153 NA
ATOM    131  C4   DT D   4      48.999  31.368  32.816  1.00 11.46     0.280 A 
ATOM    132  O4   DT D   4      49.479  31.447  33.958  1.00 13.76    -0.265 OA
ATOM    133  C5   DT D   4      47.800  32.060  32.384  1.00 12.51     0.053 A 
ATOM    134  C7   DT D   4      47.039  32.868  33.382  1.00 14.43     0.038 C 
ATOM    135  C6   DT D   4      47.407  31.964  31.112  1.00 14.14     0.083 A 
ENDBRANCH  62 127
ENDBRANCH  58  59
ENDBRANCH  55  58
ENDBRANCH  54  55
ENDBRANCH  53  54
ENDBRANCH  49  53
BRANCH  51 136
ATOM    136  N9   DA D   5      44.387  35.149  20.422  1.00 14.16    -0.272 N 
ATOM    137  C4   DA D   5      44.135  36.303  19.712  1.00 14.21     0.170 A 
ATOM    138  C5   DA D   5      43.068  35.997  18.880  1.00 12.40     0.155 A 
ATOM    139  N3   DA D   5      44.780  37.474  19.780  1.00 13.46    -0.205 NA
ATOM    140  C6   DA D   5      42.601  36.999  18.032  1.00 12.04     0.206 A 
ATOM    141  N7   DA D   5      42.653  34.707  19.091  1.00 14.47    -0.219 NA
ATOM    142  N6   DA D   5      41.567  36.807  17.189  1.00 12.46    -0.125 N 
ATOM    143  N1   DA D   5      43.221  38.202  18.069  1.00 13.98    -0.202 NA
ATOM    144  C2   DA D   5      44.258  38.352  18.918  1.00 14.25     0.202 A 
ATOM    145  C8   DA D   5      43.441  34.256  20.041  1.00 14.09     0.182 A 
ENDBRANCH  51 136
ENDBRANCH  47  48
ENDBRANCH  44  47
ENDBRANCH  43  44
ENDBRANCH  42  43
ENDBRANCH  38  42
BRANCH  40 146
ATOM    146  N1   DC D   6      48.477  35.858  29.947  1.00 11.89    -0.256 N 
ATOM    147  C2   DC D   6      48.496  35.964  31.348  1.00 11.45     0.353 A 
ATOM    148  O2   DC D   6      47.647  36.648  31.879  1.00 12.57    -0.244 OA
ATOM    149  N3   DC D   6      49.447  35.303  32.062  1.00 11.17    -0.171 NA
ATOM    150  C4   DC D   6      50.322  34.524  31.435  1.00 11.08     0.190 A 
ATOM    151  N4   DC D   6      51.268  33.892  32.148  1.00 10.70    -0.127 N 
ATOM    152  C5   DC D   6      50.281  34.352  30.000  1.00 10.83     0.060 A 
ATOM    153  C6   DC D   6      49.349  35.036  29.314  1.00 11.79     0.085 A 
ENDBRANCH  40 146
ENDBRANCH  36  37
ENDBRANCH  33  36
ENDBRANCH  32  33
ENDBRANCH  31  32
ENDBRANCH  22  31
ENDBRANCH  17  18
ENDBRANCH  14  17
ENDBRANCH  13  14
ENDBRANCH  12  13
ENDBRANCH   8  12
BRANCH  10 154
ATOM    154  N9   DA D   8      40.350  44.033  21.858  1.00 10.83    -0.272 N 
ATOM    155  C4   DA D   8      40.229  45.391  22.020  1.00  9.99     0.170 A 
ATOM    156  N3   DA D   8      39.247  46.193  21.527  1.00 10.21    -0.205 NA
ATOM    157  C5   DA D   8      41.284  45.766  22.822  1.00 10.31     0.155 A 
ATOM    158  C2   DA D   8      39.419  47.434  21.909  1.00 10.39     0.202 A 
ATOM    159  N1   DA D   8      40.404  47.950  22.679  1.00 11.14    -0.202 NA
ATOM    160  C6   DA D   8      41.341  47.118  23.190  1.00 10.09     0.206 A 
ATOM    161  N6   DA D   8      42.223  47.629  24.036  1.00 11.37    -0.125 N 
ATOM    162  N7   DA D   8      42.091  44.654  23.123  1.00 10.47    -0.219 NA
ATOM    163  C8   DA D   8      41.489  43.659  22.508  1.00 11.39     0.182 A 
ENDBRANCH  10 154
ENDBRANCH   6   7
ENDBRANCH   3   6
ENDBRANCH   2   3
ENDBRANCH   1   2
BRANCH   1 164
HETATM  164  C4' BRU D   9      36.392  41.177  14.788  1.00 14.07     0.175 C 
HETATM  165  O4' BRU D   9      35.861  41.220  13.430  1.00 13.32    -0.333 OA
HETATM  166  C1' BRU D   9      35.105  40.038  13.182  1.00 13.84     0.211 C 
HETATM  167  C2' BRU D   9      35.374  39.071  14.316  1.00 12.11     0.087 C 
HETATM  168  C3' BRU D   9      36.531  39.696  15.080  1.00 15.00     0.161 C 
BRANCH 166 169
HETATM  169  N1  BRU D   9      35.618  39.425  11.952  1.00 13.67    -0.255 N 
HETATM  170  C2  BRU D   9      34.766  38.714  11.187  1.00 11.22     0.354 A 
HETATM  171  O2  BRU D   9      33.614  38.547  11.521  1.00 13.50    -0.244 OA
HETATM  172  N3  BRU D   9      35.293  38.209  10.006  1.00 11.85    -0.153 NA
HETATM  173  C4  BRU D   9      36.556  38.374   9.597  1.00 10.30     0.291 A 
HETATM  174  O4  BRU D   9      36.928  37.970   8.464  1.00 12.93    -0.264 OA
HETATM  175  C5  BRU D   9      37.364  39.108  10.534  1.00 12.08     0.110 A 
HETATM  176  C6  BRU D   9      36.891  39.588  11.633  1.00 13.06     0.094 A 
HETATM  177 BR   BRU D   9      39.308  39.320   9.843  1.00 15.13    -0.043 Br
ENDBRANCH 166 169
BRANCH 168 178
HETATM  178  O3' BRU D   9      36.400  39.434  16.471  1.00 13.15    -0.271 OA
BRANCH 178 179
ATOM    179  P    DG D  10      37.254  38.255  17.085  1.00 14.52     0.410 P 
ATOM    180  OP2  DG D  10      36.447  37.011  17.315  1.00 14.92    -0.624 OA
ATOM    181  OP1  DG D  10      38.513  38.172  16.265  1.00 16.08    -0.624 OA
BRANCH 179 182
ATOM    182  O5'  DG D  10      37.637  38.766  18.568  1.00 14.63    -0.268 OA
BRANCH 182 183
ATOM    183  C5'  DG D  10      36.767  38.568  19.669  1.00 14.28     0.187 C 
BRANCH 183 184
ATOM    184  C4'  DG D  10      37.579  38.371  20.925  1.00 14.53     0.175 C 
ATOM    185  C3'  DG D  10      37.248  37.127  21.736  1.00 16.36     0.161 C 
ATOM    186  C2'  DG D  10      36.261  37.653  22.775  1.00 15.07     0.087 C 
ATOM    187  C1'  DG D  10      36.869  39.010  23.054  1.00 13.41     0.210 C 
ATOM    188  O4'  DG D  10      37.348  39.496  21.810  1.00 13.85    -0.333 OA
BRANCH 185 189
ATOM    189  O3'  DG D  10      38.498  36.742  22.312  1.00 20.48    -0.271 OA
BRANCH 189 190
ATOM    190  P    DG D  11      38.899  35.189  22.433  1.00 20.71     0.410 P 
ATOM    191  OP2  DG D  11      37.885  34.254  21.896  1.00 22.10    -0.624 OA
ATOM    192  OP1  DG D  11      40.317  35.098  21.998  1.00 24.32    -0.624 OA
BRANCH 190 193
ATOM    193  O5'  DG D  11      38.905  34.949  23.997  1.00 19.33    -0.268 OA
BRANCH 193 194
ATOM    194  C5'  DG D  11      37.720  34.491  24.638  1.00 18.66     0.187 C 
BRANCH 194 195
ATOM    195  C4'  DG D  11      37.712  34.982  26.064  1.00 18.71     0.175 C 
ATOM    196  C3'  DG D  11      37.262  33.926  27.052  1.00 19.69     0.161 C 
ATOM    197  C2'  DG D  11      35.767  34.174  27.155  1.00 18.26     0.087 C 
ATOM    198  C1'  DG D  11      35.726  35.696  27.089  1.00 15.98     0.210 C 
ATOM    199  O4'  DG D  11      36.822  36.101  26.284  1.00 17.85    -0.333 OA
BRANCH 196 200
ATOM    200  O3'  DG D  11      37.897  34.283  28.269  1.00 24.65    -0.271 OA
BRANCH 200 201
ATOM    201  P    DT D  12      37.553  33.496  29.577  1.00 28.19     0.410 P 
ATOM    202  OP2  DT D  12      36.451  34.086  30.369  1.00 27.85    -0.624 OA
ATOM    203  OP1  DT D  12      37.499  32.081  29.108  1.00 29.91    -0.624 OA
BRANCH 201 204
ATOM    204  O5'  DT D  12      38.822  33.712  30.498  1.00 28.66    -0.268 OA
BRANCH 204 205
ATOM    205  C5'  DT D  12      39.511  32.573  30.906  1.00 29.00     0.187 C 
BRANCH 205 206
ATOM    206  C4'  DT D  12      39.567  32.497  32.397  1.00 28.07     0.175 C 
ATOM    207  C3'  DT D  12      38.600  33.372  33.168  1.00 29.44     0.161 C 
ATOM    208  C2'  DT D  12      39.509  34.291  33.974  1.00 29.37     0.087 C 
ATOM    209  C1'  DT D  12      40.799  33.466  34.101  1.00 27.26     0.211 C 
ATOM    210  O4'  DT D  12      40.886  32.754  32.903  1.00 26.37    -0.333 OA
BRANCH 207 211
ATOM    211  O3'  DT D  12      37.955  32.404  33.953  1.00 31.26    -0.271 OA
BRANCH 211 212
ATOM    212  P    DA D  13      36.440  32.585  34.392  1.00 34.05     0.410 P 
ATOM    213  OP2  DA D  13      36.348  32.495  35.880  1.00 31.89    -0.624 OA
ATOM    214  OP1  DA D  13      36.041  33.815  33.693  1.00 33.32    -0.624 OA
BRANCH 212 215
ATOM    215  O5'  DA D  13      35.774  31.356  33.649  1.00 31.02    -0.268 OA
BRANCH 215 216
ATOM    216  C5'  DA D  13      36.013  31.147  32.258  1.00 27.53     0.187 C 
BRANCH 216 217
ATOM    217  C4'  DA D  13      34.702  31.112  31.514  1.00 25.33     0.175 C 
ATOM    218  O4'  DA D  13      34.790  30.270  30.338  1.00 22.92    -0.333 OA
ATOM    219  C1'  DA D  13      33.823  29.217  30.391  1.00 20.98     0.210 C 
ATOM    220  C2'  DA D  13      33.387  29.125  31.861  1.00 23.30     0.087 C 
ATOM    221  C3'  DA D  13      33.528  30.564  32.336  1.00 26.45     0.161 C 
BRANCH 219 222
ATOM    222  N9   DA D  13      34.484  28.025  29.879  1.00 17.31    -0.272 N 
ATOM    223  C8   DA D  13      35.814  27.800  29.807  1.00 17.58     0.182 A 
ATOM    224  N7   DA D  13      36.140  26.696  29.190  1.00 17.72    -0.219 NA
ATOM    225  C5   DA D  13      34.937  26.124  28.869  1.00 14.33     0.155 A 
ATOM    226  C6   DA D  13      34.583  24.932  28.219  1.00 14.45     0.206 A 
ATOM    227  C4   DA D  13      33.888  26.931  29.301  1.00 15.76     0.170 A 
ATOM    228  N6   DA D  13      35.473  24.042  27.695  1.00 15.52    -0.125 N 
ATOM    229  N1   DA D  13      33.281  24.671  28.104  1.00 14.59    -0.202 NA
ATOM    230  C2   DA D  13      32.380  25.551  28.559  1.00 15.74     0.202 A 
ATOM    231  N3   DA D  13      32.583  26.717  29.153  1.00 15.60    -0.205 NA
ENDBRANCH 219 222
BRANCH 221 232
ATOM    232  O3'  DA D  13      32.365  31.293  32.002  1.00 30.43    -0.271 OA
BRANCH 232 233
ATOM    233  P    DA D  14      31.684  32.216  33.107  1.00 32.07     0.410 P 
ATOM    234  OP2  DA D  14      30.364  31.684  33.411  1.00 33.16    -0.624 OA
ATOM    235  OP1  DA D  14      32.703  32.371  34.180  1.00 33.96    -0.624 OA
BRANCH 233 236
ATOM    236  O5'  DA D  14      31.568  33.597  32.368  1.00 31.87    -0.268 OA
BRANCH 236 237
ATOM    237  C5'  DA D  14      32.441  34.647  32.747  1.00 30.81     0.187 C 
BRANCH 237 238
ATOM    238  C4'  DA D  14      33.360  34.966  31.599  1.00 31.39     0.175 C 
ATOM    239  O4'  DA D  14      32.936  34.247  30.412  1.00 30.66    -0.333 OA
ATOM    240  C1'  DA D  14      32.797  35.179  29.356  1.00 28.20     0.210 C 
ATOM    241  C2'  DA D  14      32.410  36.485  30.023  1.00 29.16     0.087 C 
ATOM    242  C3'  DA D  14      33.345  36.442  31.216  1.00 31.09     0.161 C 
BRANCH 240 243
ATOM    243  N9   DA D  14      31.852  34.646  28.397  1.00 24.41    -0.272 N 
ATOM    244  C4   DA D  14      31.955  33.375  27.905  1.00 21.62     0.170 A 
ATOM    245  N3   DA D  14      32.868  32.444  28.266  1.00 18.94    -0.205 NA
ATOM    246  C5   DA D  14      30.977  33.269  26.953  1.00 22.12     0.155 A 
ATOM    247  C2   DA D  14      32.720  31.336  27.510  1.00 18.83     0.202 A 
ATOM    248  N1   DA D  14      31.821  31.109  26.576  1.00 18.79    -0.202 NA
ATOM    249  C6   DA D  14      30.903  32.074  26.278  1.00 19.52     0.206 A 
ATOM    250  N6   DA D  14      29.974  31.837  25.374  1.00 21.07    -0.125 N 
ATOM    251  N7   DA D  14      30.235  34.446  26.860  1.00 24.53    -0.219 NA
ATOM    252  C8   DA D  14      30.784  35.222  27.764  1.00 24.70     0.182 A 
ENDBRANCH 240 243
BRANCH 242 253
ATOM    253  O3'  DA D  14      34.663  36.745  30.816  1.00 31.14    -0.271 OA
BRANCH 253 254
ATOM    254  P    DC D  15      35.562  37.757  31.683  1.00 30.59     0.410 P 
ATOM    255  OP1  DC D  15      36.396  36.898  32.571  1.00 31.75    -0.624 OA
ATOM    256  OP2  DC D  15      34.766  38.887  32.253  1.00 29.87    -0.624 OA
BRANCH 254 257
ATOM    257  O5'  DC D  15      36.521  38.298  30.520  1.00 30.76    -0.268 OA
BRANCH 257 258
ATOM    258  C5'  DC D  15      37.640  37.487  30.069  1.00 28.28     0.187 C 
BRANCH 258 259
ATOM    259  C4'  DC D  15      38.958  38.030  30.588  1.00 28.15     0.175 C 
ATOM    260  O4'  DC D  15      40.082  37.284  30.068  1.00 23.18    -0.333 OA
ATOM    261  C1'  DC D  15      40.996  38.147  29.390  1.00 22.58     0.211 C 
ATOM    262  C2'  DC D  15      40.244  39.443  29.137  1.00 24.52     0.087 C 
ATOM    263  C3'  DC D  15      39.249  39.492  30.280  1.00 28.37     0.161 C 
BRANCH 261 264
ATOM    264  N1   DC D  15      41.376  37.483  28.141  1.00 18.64    -0.256 N 
ATOM    265  C6   DC D  15      40.538  37.503  27.059  1.00 16.47     0.085 A 
ATOM    266  C5   DC D  15      40.830  36.837  25.945  1.00 15.01     0.060 A 
ATOM    267  C4   DC D  15      42.061  36.081  25.937  1.00 13.33     0.190 A 
ATOM    268  N3   DC D  15      42.913  36.128  26.958  1.00 13.89    -0.171 NA
ATOM    269  N4   DC D  15      42.348  35.305  24.908  1.00 15.28    -0.127 N 
ATOM    270  C2   DC D  15      42.609  36.799  28.071  1.00 18.12     0.353 A 
ATOM    271  O2   DC D  15      43.365  36.830  29.069  1.00 20.47    -0.244 OA
ENDBRANCH 261 264
BRANCH 263 272
ATOM    272  O3'  DC D  15      39.866  40.109  31.400  1.00 31.34    -0.271 OA
BRANCH 272 273
ATOM    273  P    DG D  16      39.944  41.692  31.460  1.00 32.78     0.410 P 
ATOM    274  OP1  DG D  16      41.071  42.043  32.372  1.00 34.59    -0.624 OA
ATOM    275  OP2  DG D  16      38.574  42.183  31.749  1.00 31.45    -0.624 OA
BRANCH 273 276
ATOM    276  O5'  DG D  16      40.308  42.088  29.969  1.00 31.83    -0.268 OA
BRANCH 276 277
ATOM    277  C5'  DG D  16      41.203  43.155  29.699  1.00 31.48     0.187 C 
BRANCH 277 278
ATOM    278  C4'  DG D  16      41.485  43.210  28.219  1.00 29.56     0.178 C 
ATOM    279  C3'  DG D  16      42.806  43.894  27.842  1.00 29.50     0.186 C 
ATOM    280  C2'  DG D  16      42.351  45.269  27.371  1.00 28.21     0.090 C 
ATOM    281  O3'  DG D  16      43.375  43.207  26.705  1.00 31.52    -0.221 OA
ATOM    282  C1'  DG D  16      41.064  44.895  26.684  1.00 24.75     0.210 C 
ATOM    283  O4'  DG D  16      40.453  43.967  27.551  1.00 27.49    -0.333 OA
BRANCH 282 284
ATOM    284  N9   DG D  16      40.125  45.982  26.467  1.00 21.33    -0.271 N 
ATOM    285  C4   DG D  16      39.005  45.921  25.689  1.00 19.88     0.188 A 
ATOM    286  N3   DG D  16      38.560  44.822  25.020  1.00 18.33    -0.038 NA
ATOM    287  C5   DG D  16      38.460  47.183  25.736  1.00 17.85     0.176 A 
ATOM    288  C2   DG D  16      37.471  45.062  24.348  1.00 15.82     0.773 A 
ATOM    289  N1   DG D  16      36.860  46.310  24.310  1.00 16.33    -0.016 NA
ATOM    290  N2   DG D  16      36.861  44.055  23.644  1.00 16.23     0.062 N 
ATOM    291  C6   DG D  16      37.294  47.442  24.991  1.00 15.94     0.316 A 
ATOM    292  O6   DG D  16      36.642  48.516  24.870  1.00 18.70    -0.263 OA
ATOM    293  N7   DG D  16      39.204  48.004  26.577  1.00 18.48    -0.217 NA
ATOM    294  C8   DG D  16      40.188  47.250  26.977  1.00 19.50     0.182 A 
ENDBRANCH 282 284
ENDBRANCH 277 278
ENDBRANCH 276 277
ENDBRANCH 273 276
ENDBRANCH 272 273
ENDBRANCH 263 272
ENDBRANCH 258 259
ENDBRANCH 257 258
ENDBRANCH 254 257
ENDBRANCH 253 254
ENDBRANCH 242 253
ENDBRANCH 237 238
ENDBRANCH 236 237
ENDBRANCH 233 236
ENDBRANCH 232 233
ENDBRANCH 221 232
ENDBRANCH 216 217
ENDBRANCH 215 216
ENDBRANCH 212 215
ENDBRANCH 211 212
ENDBRANCH 207 211
BRANCH 209 295
ATOM    295  N1   DT D  12      42.058  34.212  34.208  1.00 25.54    -0.256 N 
ATOM    296  C6   DT D  12      42.324  35.290  33.388  1.00 22.97     0.083 A 
ATOM    297  C5   DT D  12      43.492  35.961  33.396  1.00 22.23     0.053 A 
ATOM    298  C4   DT D  12      44.508  35.531  34.315  1.00 20.03     0.280 A 
ATOM    299  C7   DT D  12      43.793  37.133  32.519  1.00 23.27     0.038 C 
ATOM    300  O4   DT D  12      45.616  36.057  34.380  1.00 18.53    -0.265 OA
ATOM    301  N3   DT D  12      44.165  34.460  35.142  1.00 19.51    -0.153 NA
ATOM    302  C2   DT D  12      42.985  33.767  35.139  1.00 22.25     0.354 A 
ATOM    303  O2   DT D  12      42.763  32.826  35.893  1.00 24.24    -0.244 OA
ENDBRANCH 209 295
ENDBRANCH 205 206
ENDBRANCH 204 205
ENDBRANCH 201 204
ENDBRANCH 200 201
ENDBRANCH 196 200
BRANCH 198 304
ATOM    304  N9   DG D  11      34.531  36.270  26.479  1.00 15.12    -0.271 N 
ATOM    305  C8   DG D  11      33.807  35.765  25.425  1.00 13.13     0.182 A 
ATOM    306  N7   DG D  11      32.850  36.563  25.032  1.00 13.46    -0.217 NA
ATOM    307  C5   DG D  11      32.950  37.663  25.877  1.00 11.37     0.176 A 
ATOM    308  C6   DG D  11      32.197  38.849  25.892  1.00 10.16     0.316 A 
ATOM    309  C4   DG D  11      33.958  37.492  26.796  1.00 12.33     0.188 A 
ATOM    310  O6   DG D  11      31.331  39.187  25.115  1.00 10.86    -0.263 OA
ATOM    311  N1   DG D  11      32.585  39.686  26.950  1.00 10.07    -0.016 NA
ATOM    312  C2   DG D  11      33.611  39.411  27.850  1.00 11.41     0.773 A 
ATOM    313  N2   DG D  11      33.840  40.313  28.851  1.00 10.83     0.062 N 
ATOM    314  N3   DG D  11      34.353  38.320  27.789  1.00 11.83    -0.038 NA
ENDBRANCH 198 304
ENDBRANCH 194 195
ENDBRANCH 193 194
ENDBRANCH 190 193
ENDBRANCH 189 190
ENDBRANCH 185 189
BRANCH 187 315
ATOM    315  N9   DG D  10      35.894  39.959  23.572  1.00 11.23    -0.271 N 
ATOM    316  C8   DG D  10      34.629  40.227  23.081  1.00 12.20     0.182 A 
ATOM    317  N7   DG D  10      33.968  41.085  23.830  1.00 12.66    -0.217 NA
ATOM    318  C5   DG D  10      34.864  41.416  24.840  1.00 10.47     0.176 A 
ATOM    319  C4   DG D  10      36.052  40.737  24.690  1.00 10.52     0.188 A 
ATOM    320  C6   DG D  10      34.736  42.328  25.957  1.00 11.39     0.316 A 
ATOM    321  N3   DG D  10      37.155  40.804  25.460  1.00 10.98    -0.038 NA
ATOM    322  C2   DG D  10      36.992  41.608  26.504  1.00  8.78     0.773 A 
ATOM    323  N1   DG D  10      35.862  42.342  26.745  1.00  9.45    -0.016 NA
ATOM    324  N2   DG D  10      37.954  41.731  27.413  1.00 10.60     0.062 N 
ATOM    325  O6   DG D  10      33.778  43.079  26.256  1.00 10.46    -0.263 OA
ENDBRANCH 187 315
ENDBRANCH 183 184
ENDBRANCH 182 183
ENDBRANCH 179 182
ENDBRANCH 178 179
ENDBRANCH 168 178
ENDBRANCH   1 164
TORSDOF 92
ENDMDL
MODEL 4
REMARK VINA RESULT:      -0.2      2.667      5.918
REMARK WARNING: 32 MAX_TORS EXCEEDED!!!
REMARK  92 active torsions:
REMARK  status: ('A' for Active; 'I' for Inactive)
REMARK    1  A    between atoms: C5'_1  and  C4'_3 
REMARK    2  A    between atoms: C3'_5  and  O3'_6 
REMARK    3  A    between atoms: O3'_6  and  P_17 
REMARK    4  A    between atoms: C1'_8  and  N1_9 
REMARK    5  A    between atoms: P_17  and  O5'_19 
REMARK    6  A    between atoms: C5'_18  and  O5'_19 
REMARK    7  A    between atoms: C5'_18  and  C4'_20 
REMARK    8  A    between atoms: C3'_22  and  O3'_23 
REMARK    9  A    between atoms: O3'_23  and  P_39 
REMARK   10  A    between atoms: C1'_25  and  N9_36 
REMARK   11  A    between atoms: P_39  and  O5'_41 
REMARK   12  A    between atoms: C5'_40  and  O5'_41 
REMARK   13  A    between atoms: C5'_40  and  C4'_42 
REMARK   14  A    between atoms: C3'_44  and  O3'_45 
REMARK   15  A    between atoms: O3'_45  and  P_59 
REMARK   16  A    between atoms: C1'_47  and  N1_48 
REMARK   17  A    between atoms: P_59  and  O5'_61 
REMARK   18  A    between atoms: C5'_60  and  C4'_62 
REMARK   19  A    between atoms: C5'_60  and  O5'_61 
REMARK   20  A    between atoms: C3'_64  and  O3'_65 
REMARK   21  A    between atoms: O3'_65  and  P_79 
REMARK   22  A    between atoms: C1'_67  and  N1_68 
REMARK   23  A    between atoms: P_79  and  O5'_81 
REMARK   24  A    between atoms: C5'_80  and  C4'_82 
REMARK   25  A    between atoms: C5'_80  and  O5'_81 
REMARK   26  A    between atoms: C3'_84  and  O3'_85 
REMARK   27  A    between atoms: O3'_85  and  P_100 
REMARK   28  A    between atoms: C1'_87  and  N9_97 
REMARK   29  A    between atoms: P_100  and  O5'_102 
REMARK   30  A    between atoms: C5'_101  and  C4'_103 
REMARK   31  A    between atoms: C5'_101  and  O5'_102 
REMARK   32  A    between atoms: C3'_105  and  O3'_106 
REMARK   33  A    between atoms: O3'_106  and  P_119 
REMARK   34  A    between atoms: C1'_108  and  N1_109 
REMARK   35  A    between atoms: P_119  and  O5'_121 
REMARK   36  A    between atoms: C5'_120  and  O5'_121 
REMARK   37  A    between atoms: C5'_120  and  C4'_122 
REMARK   38  A    between atoms: C3'_124  and  O3'_125 
REMARK   39  A    between atoms: O3'_125  and  P_138 
REMARK   40  A    between atoms: C1'_127  and  N1_128 
REMARK   41  A    between atoms: P_138  and  O5'_140 
REMARK   42  A    between atoms: C5'_139  and  C4'_141 
REMARK   43  A    between atoms: C5'_139  and  O5'_140 
REMARK   44  A    between atoms: C3'_143  and  O3'_144 
REMARK   45  A    between atoms: O3'_144  and  P_159 
REMARK   46  A    between atoms: C1'_146  and  N9_156 
REMARK   47  A    between atoms: P_159  and  O5'_161 
REMARK   48  A    between atoms: C5'_160  and  O5'_161 
REMARK   49  A    between atoms: C5'_160  and  C4'_162 
REMARK   50  A    between atoms: C3'_164  and  O3'_165 
REMARK   51  A    between atoms: O3'_165  and  P_179 
REMARK   52  A    between atoms: C1'_167  and  N1_168 
REMARK   53  A    between atoms: P_179  and  O5'_181 
REMARK   54  A    between atoms: C5'_180  and  C4'_182 
REMARK   55  A    between atoms: C5'_180  and  O5'_181 
REMARK   56  A    between atoms: C3'_184  and  O3'_185 
REMARK   57  A    between atoms: O3'_185  and  P_201 
REMARK   58  A    between atoms: C1'_187  and  N9_198 
REMARK   59  A    between atoms: P_201  and  O5'_203 
REMARK   60  A    between atoms: C5'_202  and  O5'_203 
REMARK   61  A    between atoms: C5'_202  and  C4'_204 
REMARK   62  A    between atoms: C3'_206  and  O3'_207 
REMARK   63  A    between atoms: O3'_207  and  P_223 
REMARK   64  A    between atoms: C1'_209  and  N9_220 
REMARK   65  A    between atoms: P_223  and  O5'_225 
REMARK   66  A    between atoms: C5'_224  and  O5'_225 
REMARK   67  A    between atoms: C5'_224  and  C4'_226 
REMARK   68  A    between atoms: C3'_228  and  O3'_229 
REMARK   69  A    between atoms: O3'_229  and  P_243 
REMARK   70  A    between atoms: C1'_231  and  N1_232 
REMARK   71  A    between atoms: P_243  and  O5'_245 
REMARK   72  A    between atoms: C5'_244  and  C4'_246 
REMARK   73  A    between atoms: C5'_244  and  O5'_245 
REMARK   74  A    between atoms: C3'_248  and  O3'_249 
REMARK   75  A    between atoms: O3'_249  and  P_264 
REMARK   76  A    between atoms: C1'_251  and  N9_261 
REMARK   77  A    between atoms: P_264  and  O5'_266 
REMARK   78  A    between atoms: C5'_265  and  C4'_267 
REMARK   79  A    between atoms: C5'_265  and  O5'_266 
REMARK   80  A    between atoms: C3'_269  and  O3'_270 
REMARK   81  A    between atoms: O3'_270  and  P_285 
REMARK   82  A    between atoms: C1'_272  and  N9_282 
REMARK   83  A    between atoms: P_285  and  O5'_287 
REMARK   84  A    between atoms: C5'_286  and  O5'_287 
REMARK   85  A    between atoms: C5'_286  and  C4'_288 
REMARK   86  A    between atoms: C3'_290  and  O3'_291 
REMARK   87  A    between atoms: O3'_291  and  P_304 
REMARK   88  A    between atoms: C1'_293  and  N1_294 
REMARK   89  A    between atoms: P_304  and  O5'_306 
REMARK   90  A    between atoms: C5'_305  and  C4'_307 
REMARK   91  A    between atoms: C5'_305  and  O5'_306 
REMARK   92  A    between atoms: C1'_312  and  N9_323 
ROOT
HETATM    1  C5' BRU D   9      42.028  42.375  12.324  1.00 14.48     0.187 C 
ENDROOT
BRANCH   1   2
HETATM    2  O5' BRU D   9      42.676  41.321  13.010  1.00 12.82    -0.268 OA
BRANCH   2   3
HETATM    3  P   BRU D   9      44.252  41.305  13.144  1.00 11.11     0.410 P 
HETATM    4  OP1 BRU D   9      44.876  42.043  11.984  1.00 14.53    -0.624 OA
HETATM    5  OP2 BRU D   9      44.509  41.770  14.533  1.00 12.75    -0.624 OA
BRANCH   3   6
ATOM      6  O3'  DA D   8      44.622  39.789  12.867  1.00 11.43    -0.271 OA
BRANCH   6   7
ATOM      7  C3'  DA D   8      43.656  38.792  13.132  1.00 10.57     0.161 C 
ATOM      8  C4'  DA D   8      44.186  37.857  14.214  1.00 11.52     0.175 C 
ATOM      9  O4'  DA D   8      43.574  36.583  13.953  1.00 11.40    -0.333 OA
ATOM     10  C1'  DA D   8      43.149  36.512  12.581  1.00 11.23     0.210 C 
ATOM     11  C2'  DA D   8      43.474  37.861  11.943  1.00 12.23     0.087 C 
BRANCH   8  12
ATOM     12  C5'  DA D   8      43.886  38.261  15.636  1.00 13.06     0.187 C 
BRANCH  12  13
ATOM     13  O5'  DA D   8      42.904  37.420  16.187  1.00 11.03    -0.268 OA
BRANCH  13  14
ATOM     14  P    DA D   8      42.874  37.181  17.781  1.00 12.25     0.410 P 
ATOM     15  OP2  DA D   8      41.651  37.898  18.290  1.00 11.74    -0.624 OA
ATOM     16  OP1  DA D   8      44.188  37.503  18.359  1.00 15.55    -0.624 OA
BRANCH  14  17
ATOM     17  O3'  DC D   7      42.662  35.603  17.953  1.00 12.10    -0.271 OA
BRANCH  17  18
ATOM     18  C3'  DC D   7      41.378  35.030  17.638  1.00 11.74     0.161 C 
ATOM     19  C2'  DC D   7      41.396  34.141  16.396  1.00 11.76     0.087 C 
ATOM     20  C1'  DC D   7      40.250  33.159  16.664  1.00 12.42     0.211 C 
ATOM     21  O4'  DC D   7      40.086  33.121  18.078  1.00 12.34    -0.333 OA
ATOM     22  C4'  DC D   7      41.006  34.043  18.723  1.00 11.56     0.175 C 
BRANCH  20  23
ATOM     23  N1   DC D   7      39.002  33.729  16.104  1.00 11.09    -0.256 N 
ATOM     24  C2   DC D   7      38.517  33.160  14.924  1.00  9.80     0.353 A 
ATOM     25  O2   DC D   7      39.208  32.258  14.417  1.00 10.91    -0.244 OA
ATOM     26  N3   DC D   7      37.359  33.593  14.369  1.00  9.76    -0.171 NA
ATOM     27  C4   DC D   7      36.703  34.603  14.916  1.00 11.68     0.190 A 
ATOM     28  N4   DC D   7      35.546  35.021  14.328  1.00 10.83    -0.127 N 
ATOM     29  C5   DC D   7      37.184  35.245  16.125  1.00 10.32     0.060 A 
ATOM     30  C6   DC D   7      38.334  34.773  16.679  1.00 11.95     0.085 A 
ENDBRANCH  20  23
BRANCH  22  31
ATOM     31  C5'  DC D   7      40.347  34.641  19.935  1.00 14.18     0.187 C 
BRANCH  31  32
ATOM     32  O5'  DC D   7      39.105  33.960  20.157  1.00 16.43    -0.268 OA
BRANCH  32  33
ATOM     33  P    DC D   7      38.919  33.098  21.478  1.00 18.54     0.410 P 
ATOM     34  OP1  DC D   7      37.708  33.566  22.134  1.00 22.71    -0.624 OA
ATOM     35  OP2  DC D   7      39.097  31.701  21.092  1.00 19.79    -0.624 OA
BRANCH  33  36
ATOM     36  O3'  DC D   6      40.105  33.662  22.417  1.00 17.13    -0.271 OA
BRANCH  36  37
ATOM     37  C3'  DC D   6      40.861  32.785  23.220  1.00 14.94     0.161 C 
ATOM     38  C4'  DC D   6      40.155  32.683  24.566  1.00 15.77     0.175 C 
ATOM     39  O4'  DC D   6      40.810  33.652  25.404  1.00 13.81    -0.333 OA
ATOM     40  C1'  DC D   6      41.695  34.406  24.624  1.00 12.86     0.211 C 
ATOM     41  C2'  DC D   6      42.180  33.454  23.560  1.00 14.65     0.087 C 
BRANCH  38  42
ATOM     42  C5'  DC D   6      40.253  31.310  25.184  1.00 18.13     0.187 C 
BRANCH  42  43
ATOM     43  O5'  DC D   6      39.914  30.326  24.211  1.00 19.27    -0.268 OA
BRANCH  43  44
ATOM     44  P    DC D   6      38.541  29.507  24.331  1.00 19.84     0.410 P 
ATOM     45  OP1  DC D   6      37.515  30.397  23.729  1.00 24.35    -0.624 OA
ATOM     46  OP2  DC D   6      38.759  28.170  23.780  1.00 20.92    -0.624 OA
BRANCH  44  47
ATOM     47  O3'  DA D   5      38.303  29.498  25.906  1.00 19.93    -0.271 OA
BRANCH  47  48
ATOM     48  C3'  DA D   5      38.261  28.265  26.622  1.00 16.89     0.161 C 
ATOM     49  C4'  DA D   5      37.453  28.545  27.885  1.00 17.32     0.175 C 
ATOM     50  O4'  DA D   5      38.414  28.898  28.885  1.00 18.24    -0.333 OA
ATOM     51  C1'  DA D   5      39.748  28.726  28.372  1.00 15.77     0.210 C 
ATOM     52  C2'  DA D   5      39.631  27.842  27.147  1.00 16.34     0.087 C 
BRANCH  49  53
ATOM     53  C5'  DA D   5      36.534  27.427  28.326  1.00 17.61     0.187 C 
BRANCH  53  54
ATOM     54  O5'  DA D   5      35.181  27.871  28.272  1.00 19.33    -0.268 OA
BRANCH  54  55
ATOM     55  P    DA D   5      34.359  28.057  29.608  1.00 20.74     0.410 P 
ATOM     56  OP2  DA D   5      34.164  26.763  30.303  1.00 23.47    -0.624 OA
ATOM     57  OP1  DA D   5      33.179  28.917  29.266  1.00 23.99    -0.624 OA
BRANCH  55  58
ATOM     58  O3'  DT D   4      35.311  29.036  30.469  1.00 19.59    -0.271 OA
BRANCH  58  59
ATOM     59  C3'  DT D   4      34.881  30.361  30.847  1.00 18.10     0.161 C 
ATOM     60  C4'  DT D   4      35.593  31.373  29.934  1.00 15.82     0.175 C 
ATOM     61  O4'  DT D   4      36.652  31.954  30.717  1.00 16.38    -0.333 OA
ATOM     62  C1'  DT D   4      36.774  31.310  31.982  1.00 15.63     0.211 C 
ATOM     63  C2'  DT D   4      35.372  30.734  32.248  1.00 16.56     0.087 C 
BRANCH  60  64
ATOM     64  C5'  DT D   4      34.748  32.512  29.401  1.00 17.08     0.187 C 
BRANCH  64  65
ATOM     65  O5'  DT D   4      35.044  33.726  30.121  1.00 15.07    -0.268 OA
BRANCH  65  66
ATOM     66  P    DT D   4      35.295  35.083  29.320  1.00 15.11     0.410 P 
ATOM     67  OP1  DT D   4      34.346  35.132  28.138  1.00 18.00    -0.624 OA
ATOM     68  OP2  DT D   4      35.253  36.165  30.348  1.00 17.03    -0.624 OA
BRANCH  66  69
HETATM   69  O3' BRU D   3      36.713  34.857  28.699  1.00 15.24    -0.271 OA
BRANCH  69  70
HETATM   70  C3' BRU D   3      37.875  35.508  29.224  1.00 13.22     0.161 C 
HETATM   71  C4' BRU D   3      38.542  36.119  27.992  1.00 14.89     0.175 C 
HETATM   72  O4' BRU D   3      39.932  35.744  28.047  1.00 16.05    -0.333 OA
HETATM   73  C1' BRU D   3      39.989  34.475  28.691  1.00 15.34     0.211 C 
HETATM   74  C2' BRU D   3      38.962  34.605  29.825  1.00 12.90     0.087 C 
BRANCH  71  75
HETATM   75  C5' BRU D   3      38.378  37.595  27.732  1.00 17.61     0.187 C 
BRANCH  75  76
HETATM   76  O5' BRU D   3      37.130  38.065  28.202  1.00 15.66    -0.268 OA
BRANCH  76  77
HETATM   77  P   BRU D   3      36.019  38.424  27.111  1.00 16.77     0.410 P 
HETATM   78  OP1 BRU D   3      36.092  37.357  26.072  1.00 18.57    -0.624 OA
HETATM   79  OP2 BRU D   3      34.735  38.724  27.805  1.00 18.18    -0.624 OA
BRANCH  77  80
ATOM     80  O3'  DG D   2      36.539  39.767  26.434  1.00 17.32    -0.271 OA
BRANCH  80  81
ATOM     81  C3'  DG D   2      36.678  39.871  25.027  1.00 15.47     0.161 C 
ATOM     82  C2'  DG D   2      35.298  40.055  24.380  1.00 16.87     0.087 C 
ATOM     83  C1'  DG D   2      35.000  41.525  24.672  1.00 16.11     0.210 C 
ATOM     84  O4'  DG D   2      36.275  42.180  24.675  1.00 18.37    -0.333 OA
ATOM     85  C4'  DG D   2      37.352  41.227  24.810  1.00 18.34     0.175 C 
BRANCH  83  86
ATOM     86  N9   DG D   2      34.182  42.212  23.675  1.00 16.03    -0.272 N 
ATOM     87  C8   DG D   2      34.343  42.214  22.310  1.00 14.57     0.182 A 
ATOM     88  N7   DG D   2      33.507  43.009  21.686  1.00 16.34    -0.217 NA
ATOM     89  C5   DG D   2      32.735  43.565  22.721  1.00 13.99     0.175 A 
ATOM     90  C6   DG D   2      31.678  44.522  22.669  1.00 12.33     0.302 A 
ATOM     91  C4   DG D   2      33.118  43.052  23.949  1.00 12.94     0.172 A 
ATOM     92  O6   DG D   2      31.233  45.075  21.679  1.00 15.71    -0.263 OA
ATOM     93  N1   DG D   2      31.173  44.809  23.918  1.00 12.85    -0.174 NA
ATOM     94  C2   DG D   2      31.604  44.241  25.101  1.00 12.30     0.242 A 
ATOM     95  N2   DG D   2      30.955  44.627  26.264  1.00 15.13    -0.059 NA
ATOM     96  N3   DG D   2      32.606  43.327  25.169  1.00 14.89    -0.195 NA
ENDBRANCH  83  86
BRANCH  85  97
ATOM     97  C5'  DG D   2      38.285  41.317  23.626  1.00 20.11     0.187 C 
BRANCH  97  98
ATOM     98  O5'  DG D   2      39.637  41.151  24.037  1.00 21.44    -0.268 OA
BRANCH  98  99
ATOM     99  P    DG D   2      40.636  42.380  24.057  1.00 23.19     0.410 P 
ATOM    100  OP1  DG D   2      40.261  43.143  25.282  1.00 25.33    -0.624 OA
ATOM    101  OP2  DG D   2      42.037  41.994  23.829  1.00 23.21    -0.624 OA
BRANCH  99 102
ATOM    102  O3'  DC D   1      40.218  43.277  22.798  1.00 26.59    -0.271 OA
BRANCH 102 103
ATOM    103  C3'  DC D   1      39.780  44.609  23.030  1.00 27.88     0.161 C 
ATOM    104  C2'  DC D   1      40.414  45.494  21.976  1.00 26.06     0.087 C 
ATOM    105  C1'  DC D   1      39.553  45.149  20.783  1.00 24.51     0.211 C 
ATOM    106  O4'  DC D   1      38.222  45.000  21.302  1.00 29.50    -0.333 OA
ATOM    107  C4'  DC D   1      38.294  44.667  22.698  1.00 29.48     0.178 C 
BRANCH 105 108
ATOM    108  N1   DC D   1      39.475  46.121  19.686  1.00 21.38    -0.256 N 
ATOM    109  C6   DC D   1      38.983  47.384  19.880  1.00 19.62     0.085 A 
ATOM    110  C5   DC D   1      38.834  48.233  18.843  1.00 19.43     0.060 A 
ATOM    111  C4   DC D   1      39.253  47.771  17.556  1.00 17.00     0.190 A 
ATOM    112  N4   DC D   1      39.155  48.562  16.487  1.00 18.52    -0.127 N 
ATOM    113  N3   DC D   1      39.763  46.542  17.375  1.00 17.32    -0.171 NA
ATOM    114  C2   DC D   1      39.873  45.709  18.419  1.00 18.49     0.353 A 
ATOM    115  O2   DC D   1      40.320  44.565  18.277  1.00 18.51    -0.244 OA
ENDBRANCH 105 108
BRANCH 107 116
ATOM    116  C5'  DC D   1      37.479  45.641  23.518  1.00 31.78     0.214 C 
ATOM    117  O5'  DC D   1      38.243  46.816  23.804  1.00 34.90    -0.218 OA
ENDBRANCH 107 116
ENDBRANCH 102 103
ENDBRANCH  99 102
ENDBRANCH  98  99
ENDBRANCH  97  98
ENDBRANCH  85  97
ENDBRANCH  80  81
ENDBRANCH  77  80
ENDBRANCH  76  77
ENDBRANCH  75  76
ENDBRANCH  71  75
BRANCH  73 118
HETATM  118  N1  BRU D   3      41.364  34.273  29.154  1.00 13.25    -0.255 N 
HETATM  119  C2  BRU D   3      42.014  33.037  28.936  1.00 11.90     0.354 A 
HETATM  120  O2  BRU D   3      41.471  32.092  28.397  1.00 16.11    -0.244 OA
HETATM  121  N3  BRU D   3      43.300  32.961  29.372  1.00 12.15    -0.153 NA
HETATM  122  C4  BRU D   3      43.999  33.945  29.953  1.00 12.48     0.291 A 
HETATM  123  O4  BRU D   3      45.166  33.789  30.364  1.00 16.38    -0.264 OA
HETATM  124  C5  BRU D   3      43.230  35.127  30.138  1.00 14.67     0.110 A 
HETATM  125  C6  BRU D   3      41.991  35.240  29.753  1.00 13.17     0.094 A 
HETATM  126 BR   BRU D   3      44.149  36.741  31.128  1.00 24.07    -0.043 Br
ENDBRANCH  73 118
ENDBRANCH  69  70
ENDBRANCH  66  69
ENDBRANCH  65  66
ENDBRANCH  64  65
ENDBRANCH  60  64
BRANCH  62 127
ATOM    127  N1   DT D   4      37.300  32.339  32.925  1.00 13.98    -0.256 N 
ATOM    128  C2   DT D   4      38.130  31.934  33.934  1.00 13.56     0.354 A 
ATOM    129  O2   DT D   4      38.396  30.746  34.102  1.00 16.57    -0.244 OA
ATOM    130  N3   DT D   4      38.661  32.942  34.729  1.00 12.35    -0.153 NA
ATOM    131  C4   DT D   4      38.425  34.306  34.581  1.00 11.46     0.280 A 
ATOM    132  O4   DT D   4      38.990  35.140  35.306  1.00 13.76    -0.265 OA
ATOM    133  C5   DT D   4      37.483  34.641  33.530  1.00 12.51     0.053 A 
ATOM    134  C7   DT D   4      37.100  36.071  33.340  1.00 14.43     0.038 C 
ATOM    135  C6   DT D   4      36.984  33.672  32.760  1.00 14.14     0.083 A 
ENDBRANCH  62 127
ENDBRANCH  58  59
ENDBRANCH  55  58
ENDBRANCH  54  55
ENDBRANCH  53  54
ENDBRANCH  49  53
BRANCH  51 136
ATOM    136  N9   DA D   5      40.506  28.143  29.487  1.00 14.16    -0.272 N 
ATOM    137  C4   DA D   5      40.907  28.816  30.620  1.00 14.21     0.170 A 
ATOM    138  C5   DA D   5      41.389  27.837  31.477  1.00 12.40     0.155 A 
ATOM    139  N3   DA D   5      40.837  30.129  30.872  1.00 13.46    -0.205 NA
ATOM    140  C6   DA D   5      41.862  28.244  32.724  1.00 12.04     0.206 A 
ATOM    141  N7   DA D   5      41.319  26.604  30.882  1.00 14.47    -0.219 NA
ATOM    142  N6   DA D   5      42.356  27.374  33.626  1.00 12.46    -0.125 N 
ATOM    143  N1   DA D   5      41.815  29.565  33.019  1.00 13.98    -0.202 NA
ATOM    144  C2   DA D   5      41.304  30.401  32.094  1.00 14.25     0.202 A 
ATOM    145  C8   DA D   5      40.824  26.840  29.688  1.00 14.09     0.182 A 
ENDBRANCH  51 136
ENDBRANCH  47  48
ENDBRANCH  44  47
ENDBRANCH  43  44
ENDBRANCH  42  43
ENDBRANCH  38  42
BRANCH  40 146
ATOM    146  N1   DC D   6      42.724  35.010  25.519  1.00 11.89    -0.256 N 
ATOM    147  C2   DC D   6      42.571  36.366  25.857  1.00 11.45     0.353 A 
ATOM    148  O2   DC D   6      41.552  36.927  25.512  1.00 12.57    -0.244 OA
ATOM    149  N3   DC D   6      43.548  37.001  26.556  1.00 11.17    -0.171 NA
ATOM    150  C4   DC D   6      44.620  36.326  26.957  1.00 11.08     0.190 A 
ATOM    151  N4   DC D   6      45.589  36.969  27.630  1.00 10.70    -0.127 N 
ATOM    152  C5   DC D   6      44.769  34.917  26.673  1.00 10.83     0.060 A 
ATOM    153  C6   DC D   6      43.802  34.317  25.957  1.00 11.79     0.085 A 
ENDBRANCH  40 146
ENDBRANCH  36  37
ENDBRANCH  33  36
ENDBRANCH  32  33
ENDBRANCH  31  32
ENDBRANCH  22  31
ENDBRANCH  17  18
ENDBRANCH  14  17
ENDBRANCH  13  14
ENDBRANCH  12  13
ENDBRANCH   8  12
BRANCH  10 154
ATOM    154  N9   DA D   8      41.699  36.313  12.594  1.00 10.83    -0.272 N 
ATOM    155  C4   DA D   8      40.976  35.907  11.500  1.00  9.99     0.170 A 
ATOM    156  N3   DA D   8      41.449  35.643  10.253  1.00 10.21    -0.205 NA
ATOM    157  C5   DA D   8      39.677  35.782  11.940  1.00 10.31     0.155 A 
ATOM    158  C2   DA D   8      40.487  35.238   9.462  1.00 10.39     0.202 A 
ATOM    159  N1   DA D   8      39.175  35.078   9.745  1.00 11.14    -0.202 NA
ATOM    160  C6   DA D   8      38.743  35.308  11.007  1.00 10.09     0.206 A 
ATOM    161  N6   DA D   8      37.478  35.030  11.285  1.00 11.37    -0.125 N 
ATOM    162  N7   DA D   8      39.578  36.153  13.293  1.00 10.47    -0.219 NA
ATOM    163  C8   DA D   8      40.812  36.472  13.617  1.00 11.39     0.182 A 
ENDBRANCH  10 154
ENDBRANCH   6   7
ENDBRANCH   3   6
ENDBRANCH   2   3
ENDBRANCH   1   2
BRANCH   1 164
HETATM  164  C4' BRU D   9      41.494  43.392  13.308  1.00 14.07     0.175 C 
HETATM  165  O4' BRU D   9      40.562  44.277  12.617  1.00 13.32    -0.333 OA
HETATM  166  C1' BRU D   9      39.608  44.776  13.550  1.00 13.84     0.211 C 
HETATM  167  C2' BRU D   9      39.758  43.985  14.833  1.00 12.11     0.087 C 
HETATM  168  C3' BRU D   9      40.687  42.838  14.464  1.00 15.00     0.161 C 
BRANCH 166 169
HETATM  169  N1  BRU D   9      38.270  44.500  13.019  1.00 13.67    -0.255 N 
HETATM  170  C2  BRU D   9      37.224  45.181  13.529  1.00 11.22     0.354 A 
HETATM  171  O2  BRU D   9      37.373  45.973  14.432  1.00 13.50    -0.244 OA
HETATM  172  N3  BRU D   9      35.992  44.921  12.945  1.00 11.85    -0.153 NA
HETATM  173  C4  BRU D   9      35.783  44.059  11.944  1.00 10.30     0.291 A 
HETATM  174  O4  BRU D   9      34.651  43.956  11.402  1.00 12.93    -0.264 OA
HETATM  175  C5  BRU D   9      36.976  43.367  11.534  1.00 12.08     0.110 A 
HETATM  176  C6  BRU D   9      38.130  43.598  12.062  1.00 13.06     0.094 A 
HETATM  177 BR   BRU D   9      36.581  42.043   9.988  1.00 15.13    -0.043 Br
ENDBRANCH 166 169
BRANCH 168 178
HETATM  178  O3' BRU D   9      41.525  42.512  15.564  1.00 13.15    -0.271 OA
BRANCH 178 179
ATOM    179  P    DG D  10      41.247  41.156  16.329  1.00 14.52     0.410 P 
ATOM    180  OP2  DG D  10      40.877  40.033  15.406  1.00 14.92    -0.624 OA
ATOM    181  OP1  DG D  10      42.391  40.971  17.289  1.00 16.08    -0.624 OA
BRANCH 179 182
ATOM    182  O5'  DG D  10      39.903  41.441  17.176  1.00 14.63    -0.268 OA
BRANCH 182 183
ATOM    183  C5'  DG D  10      39.376  40.482  18.077  1.00 14.28     0.187 C 
BRANCH 183 184
ATOM    184  C4'  DG D  10      37.870  40.483  17.991  1.00 14.53     0.175 C 
ATOM    185  C3'  DG D  10      37.170  41.642  18.684  1.00 16.36     0.161 C 
ATOM    186  C2'  DG D  10      36.827  41.060  20.054  1.00 15.07     0.087 C 
ATOM    187  C1'  DG D  10      36.466  39.646  19.657  1.00 13.41     0.210 C 
ATOM    188  O4'  DG D  10      37.368  39.279  18.624  1.00 13.85    -0.333 OA
BRANCH 185 189
ATOM    189  O3'  DG D  10      36.011  41.881  17.883  1.00 20.48    -0.271 OA
BRANCH 189 190
ATOM    190  P    DG D  11      35.802  43.297  17.149  1.00 20.71     0.410 P 
ATOM    191  OP2  DG D  11      34.585  44.027  17.568  1.00 22.10    -0.624 OA
ATOM    192  OP1  DG D  11      37.130  43.965  17.167  1.00 24.32    -0.624 OA
BRANCH 190 193
ATOM    193  O5'  DG D  11      35.544  42.878  15.645  1.00 19.33    -0.268 OA
BRANCH 193 194
ATOM    194  C5'  DG D  11      36.398  41.921  15.030  1.00 18.66     0.187 C 
BRANCH 194 195
ATOM    195  C4'  DG D  11      35.557  40.802  14.469  1.00 18.71     0.175 C 
ATOM    196  C3'  DG D  11      35.620  39.538  15.303  1.00 19.69     0.161 C 
ATOM    197  C2'  DG D  11      36.752  38.761  14.654  1.00 18.26     0.087 C 
ATOM    198  C1'  DG D  11      36.517  39.090  13.184  1.00 15.98     0.210 C 
ATOM    199  O4'  DG D  11      35.954  40.391  13.141  1.00 17.85    -0.333 OA
BRANCH 196 200
ATOM    200  O3'  DG D  11      34.383  38.887  15.057  1.00 24.65    -0.271 OA
BRANCH 200 201
ATOM    201  P    DT D  12      33.525  38.383  16.264  1.00 28.19     0.410 P 
ATOM    202  OP2  DT D  12      33.805  39.079  17.540  1.00 27.85    -0.624 OA
ATOM    203  OP1  DT D  12      32.148  38.334  15.694  1.00 29.91    -0.624 OA
BRANCH 201 204
ATOM    204  O5'  DT D  12      34.055  36.915  16.523  1.00 28.66    -0.268 OA
BRANCH 204 205
ATOM    205  C5'  DT D  12      33.992  36.439  17.830  1.00 29.00     0.187 C 
BRANCH 205 206
ATOM    206  C4'  DT D  12      33.188  35.181  17.893  1.00 28.07     0.175 C 
ATOM    207  C3'  DT D  12      33.951  33.873  17.853  1.00 29.44     0.161 C 
ATOM    208  C2'  DT D  12      33.441  33.195  16.589  1.00 29.37     0.087 C 
ATOM    209  C1'  DT D  12      32.048  33.818  16.409  1.00 27.26     0.211 C 
ATOM    210  O4'  DT D  12      32.181  35.129  16.870  1.00 26.37    -0.333 OA
BRANCH 207 211
ATOM    211  O3'  DT D  12      33.483  33.271  19.032  1.00 31.26    -0.271 OA
BRANCH 211 212
ATOM    212  P    DA D  13      34.485  32.850  20.189  1.00 34.05     0.410 P 
ATOM    213  OP2  DA D  13      35.519  31.929  19.629  1.00 31.89    -0.624 OA
ATOM    214  OP1  DA D  13      34.875  34.142  20.771  1.00 33.32    -0.624 OA
BRANCH 212 215
ATOM    215  O5'  DA D  13      33.489  32.136  21.191  1.00 31.02    -0.268 OA
BRANCH 215 216
ATOM    216  C5'  DA D  13      32.092  32.419  21.132  1.00 27.53     0.187 C 
BRANCH 216 217
ATOM    217  C4'  DA D  13      31.344  31.499  22.064  1.00 25.33     0.175 C 
ATOM    218  O4'  DA D  13      32.258  30.749  22.902  1.00 22.92    -0.333 OA
ATOM    219  C1'  DA D  13      31.995  30.991  24.287  1.00 20.98     0.210 C 
ATOM    220  C2'  DA D  13      31.160  32.279  24.334  1.00 23.30     0.087 C 
ATOM    221  C3'  DA D  13      30.389  32.219  23.023  1.00 26.45     0.161 C 
BRANCH 219 222
ATOM    222  N9   DA D  13      33.291  31.085  24.943  1.00 17.31    -0.272 N 
ATOM    223  C8   DA D  13      33.854  30.172  25.766  1.00 17.58     0.182 A 
ATOM    224  N7   DA D  13      34.972  30.562  26.318  1.00 17.72    -0.219 NA
ATOM    225  C5   DA D  13      35.190  31.806  25.786  1.00 14.33     0.155 A 
ATOM    226  C6   DA D  13      36.213  32.754  25.949  1.00 14.45     0.206 A 
ATOM    227  C4   DA D  13      34.159  32.148  24.917  1.00 15.76     0.170 A 
ATOM    228  N6   DA D  13      37.277  32.607  26.788  1.00 15.52    -0.125 N 
ATOM    229  N1   DA D  13      36.116  33.874  25.233  1.00 14.59    -0.202 NA
ATOM    230  C2   DA D  13      35.054  34.073  24.442  1.00 15.74     0.202 A 
ATOM    231  N3   DA D  13      34.015  33.280  24.230  1.00 15.60    -0.205 NA
ENDBRANCH 219 222
BRANCH 221 232
ATOM    232  O3'  DA D  13      29.232  31.424  23.188  1.00 30.43    -0.271 OA
BRANCH 232 233
ATOM    233  P    DA D  14      27.800  32.123  23.156  1.00 32.07     0.410 P 
ATOM    234  OP2  DA D  14      26.965  31.432  22.186  1.00 33.16    -0.624 OA
ATOM    235  OP1  DA D  14      27.378  32.230  24.579  1.00 33.96    -0.624 OA
BRANCH 233 236
ATOM    236  O5'  DA D  14      28.144  33.572  22.659  1.00 31.87    -0.268 OA
BRANCH 236 237
ATOM    237  C5'  DA D  14      27.217  34.615  22.908  1.00 30.81     0.187 C 
BRANCH 237 238
ATOM    238  C4'  DA D  14      27.864  35.938  22.600  1.00 31.39     0.175 C 
ATOM    239  O4'  DA D  14      27.405  36.945  23.537  1.00 30.66    -0.333 OA
ATOM    240  C1'  DA D  14      28.540  37.567  24.110  1.00 28.20     0.210 C 
ATOM    241  C2'  DA D  14      29.621  36.505  24.112  1.00 29.16     0.087 C 
ATOM    242  C3'  DA D  14      29.383  35.904  22.740  1.00 31.09     0.161 C 
BRANCH 240 243
ATOM    243  N9   DA D  14      28.165  38.101  25.403  1.00 24.41    -0.272 N 
ATOM    244  C4   DA D  14      27.398  39.225  25.530  1.00 21.62     0.170 A 
ATOM    245  N3   DA D  14      26.845  39.940  24.524  1.00 18.94    -0.205 NA
ATOM    246  C5   DA D  14      27.351  39.488  26.873  1.00 22.12     0.155 A 
ATOM    247  C2   DA D  14      26.229  41.033  25.020  1.00 18.83     0.202 A 
ATOM    248  N1   DA D  14      26.108  41.390  26.281  1.00 18.79    -0.202 NA
ATOM    249  C6   DA D  14      26.658  40.611  27.256  1.00 19.52     0.206 A 
ATOM    250  N6   DA D  14      26.504  40.941  28.523  1.00 21.07    -0.125 N 
ATOM    251  N7   DA D  14      28.051  38.524  27.599  1.00 24.53    -0.219 NA
ATOM    252  C8   DA D  14      28.492  37.708  26.673  1.00 24.70     0.182 A 
ENDBRANCH 240 243
BRANCH 242 253
ATOM    253  O3'  DA D  14      29.877  36.763  21.737  1.00 31.14    -0.271 OA
BRANCH 253 254
ATOM    254  P    DC D  15      31.033  36.265  20.738  1.00 30.59     0.410 P 
ATOM    255  OP1  DC D  15      30.382  35.283  19.823  1.00 31.75    -0.624 OA
ATOM    256  OP2  DC D  15      32.296  35.909  21.454  1.00 29.87    -0.624 OA
BRANCH 254 257
ATOM    257  O5'  DC D  15      31.240  37.616  19.903  1.00 30.76    -0.268 OA
BRANCH 257 258
ATOM    258  C5'  DC D  15      30.382  37.903  18.766  1.00 28.28     0.187 C 
BRANCH 258 259
ATOM    259  C4'  DC D  15      29.832  39.315  18.833  1.00 28.15     0.175 C 
ATOM    260  O4'  DC D  15      29.424  39.663  20.176  1.00 23.18    -0.333 OA
ATOM    261  C1'  DC D  15      30.098  40.840  20.624  1.00 22.58     0.211 C 
ATOM    262  C2'  DC D  15      31.267  41.044  19.674  1.00 24.52     0.087 C 
ATOM    263  C3'  DC D  15      30.772  40.423  18.382  1.00 28.37     0.161 C 
BRANCH 261 264
ATOM    264  N1   DC D  15      30.546  40.590  21.995  1.00 18.64    -0.256 N 
ATOM    265  C6   DC D  15      31.581  39.728  22.244  1.00 16.47     0.085 A 
ATOM    266  C5   DC D  15      31.947  39.426  23.486  1.00 15.01     0.060 A 
ATOM    267  C4   DC D  15      31.194  40.036  24.558  1.00 13.33     0.190 A 
ATOM    268  N3   DC D  15      30.244  40.936  24.316  1.00 13.89    -0.171 NA
ATOM    269  N4   DC D  15      31.431  39.685  25.808  1.00 15.28    -0.127 N 
ATOM    270  C2   DC D  15      29.885  41.230  23.065  1.00 18.12     0.353 A 
ATOM    271  O2   DC D  15      28.965  42.037  22.799  1.00 20.47    -0.244 OA
ENDBRANCH 261 264
BRANCH 263 272
ATOM    272  O3'  DC D  15      30.050  41.402  17.649  1.00 31.34    -0.271 OA
BRANCH 272 273
ATOM    273  P    DG D  16      30.696  42.011  16.335  1.00 32.78     0.410 P 
ATOM    274  OP1  DG D  16      32.158  41.716  16.386  1.00 34.59    -0.624 OA
ATOM    275  OP2  DG D  16      30.225  43.414  16.231  1.00 31.45    -0.624 OA
BRANCH 273 276
ATOM    276  O5'  DG D  16      30.012  41.171  15.179  1.00 31.83    -0.268 OA
BRANCH 276 277
ATOM    277  C5'  DG D  16      29.511  41.811  14.015  1.00 31.48     0.187 C 
BRANCH 277 278
ATOM    278  C4'  DG D  16      29.260  40.779  12.946  1.00 29.56     0.178 C 
ATOM    279  C3'  DG D  16      27.816  40.731  12.426  1.00 29.50     0.186 C 
ATOM    280  C2'  DG D  16      27.243  39.512  13.135  1.00 28.21     0.090 C 
ATOM    281  O3'  DG D  16      27.843  40.443  11.010  1.00 31.52    -0.221 OA
ATOM    282  C1'  DG D  16      28.450  38.614  13.126  1.00 24.75     0.210 C 
ATOM    283  O4'  DG D  16      29.526  39.459  13.466  1.00 27.49    -0.333 OA
BRANCH 282 284
ATOM    284  N9   DG D  16      28.431  37.519  14.080  1.00 21.33    -0.271 N 
ATOM    285  C4   DG D  16      27.845  36.302  13.881  1.00 19.88     0.188 A 
ATOM    286  N3   DG D  16      27.217  35.897  12.743  1.00 18.33    -0.038 NA
ATOM    287  C5   DG D  16      28.028  35.613  15.058  1.00 17.85     0.176 A 
ATOM    288  C2   DG D  16      26.742  34.689  12.845  1.00 15.82     0.773 A 
ATOM    289  N1   DG D  16      26.850  33.925  14.000  1.00 16.33    -0.016 NA
ATOM    290  N2   DG D  16      26.111  34.106  11.777  1.00 16.23     0.062 N 
ATOM    291  C6   DG D  16      27.493  34.315  15.170  1.00 15.94     0.316 A 
ATOM    292  O6   DG D  16      27.521  33.519  16.149  1.00 18.70    -0.263 OA
ATOM    293  N7   DG D  16      28.765  36.374  15.959  1.00 18.48    -0.217 NA
ATOM    294  C8   DG D  16      28.970  37.501  15.337  1.00 19.50     0.182 A 
ENDBRANCH 282 284
ENDBRANCH 277 278
ENDBRANCH 276 277
ENDBRANCH 273 276
ENDBRANCH 272 273
ENDBRANCH 263 272
ENDBRANCH 258 259
ENDBRANCH 257 258
ENDBRANCH 254 257
ENDBRANCH 253 254
ENDBRANCH 242 253
ENDBRANCH 237 238
ENDBRANCH 236 237
ENDBRANCH 233 236
ENDBRANCH 232 233
ENDBRANCH 221 232
ENDBRANCH 216 217
ENDBRANCH 215 216
ENDBRANCH 212 215
ENDBRANCH 211 212
ENDBRANCH 207 211
BRANCH 209 295
ATOM    295  N1   DT D  12      31.543  33.933  15.036  1.00 25.54    -0.256 N 
ATOM    296  C6   DT D  12      31.754  35.074  14.289  1.00 22.97     0.083 A 
ATOM    297  C5   DT D  12      31.250  35.258  13.053  1.00 22.23     0.053 A 
ATOM    298  C4   DT D  12      30.456  34.204  12.487  1.00 20.03     0.280 A 
ATOM    299  C7   DT D  12      31.474  36.485  12.229  1.00 23.27     0.038 C 
ATOM    300  O4   DT D  12      29.929  34.286  11.380  1.00 18.53    -0.265 OA
ATOM    301  N3   DT D  12      30.311  33.062  13.276  1.00 19.51    -0.153 NA
ATOM    302  C2   DT D  12      30.813  32.866  14.533  1.00 22.25     0.354 A 
ATOM    303  O2   DT D  12      30.631  31.834  15.170  1.00 24.24    -0.244 OA
ENDBRANCH 209 295
ENDBRANCH 205 206
ENDBRANCH 204 205
ENDBRANCH 201 204
ENDBRANCH 200 201
ENDBRANCH 196 200
BRANCH 198 304
ATOM    304  N9   DG D  11      37.712  39.128  12.347  1.00 15.12    -0.271 N 
ATOM    305  C8   DG D  11      38.958  39.599  12.691  1.00 13.13     0.182 A 
ATOM    306  N7   DG D  11      39.798  39.603  11.690  1.00 13.46    -0.217 NA
ATOM    307  C5   DG D  11      39.060  39.109  10.619  1.00 11.37     0.176 A 
ATOM    308  C6   DG D  11      39.443  38.926   9.280  1.00 10.16     0.316 A 
ATOM    309  C4   DG D  11      37.784  38.780  11.007  1.00 12.33     0.188 A 
ATOM    310  O6   DG D  11      40.496  39.228   8.763  1.00 10.86    -0.263 OA
ATOM    311  N1   DG D  11      38.410  38.344   8.530  1.00 10.07    -0.016 NA
ATOM    312  C2   DG D  11      37.148  38.023   9.023  1.00 11.41     0.773 A 
ATOM    313  N2   DG D  11      36.263  37.424   8.171  1.00 10.83     0.062 N 
ATOM    314  N3   DG D  11      36.778  38.256  10.270  1.00 11.83    -0.038 NA
ENDBRANCH 198 304
ENDBRANCH 194 195
ENDBRANCH 193 194
ENDBRANCH 190 193
ENDBRANCH 189 190
ENDBRANCH 185 189
BRANCH 187 315
ATOM    315  N9   DG D  10      36.622  38.705  20.756  1.00 11.23    -0.271 N 
ATOM    316  C8   DG D  10      35.648  37.916  21.342  1.00 12.20     0.182 A 
ATOM    317  N7   DG D  10      36.136  37.111  22.263  1.00 12.66    -0.217 NA
ATOM    318  C5   DG D  10      37.491  37.420  22.301  1.00 10.47     0.176 A 
ATOM    319  C4   DG D  10      37.802  38.400  21.386  1.00 10.52     0.188 A 
ATOM    320  C6   DG D  10      38.559  36.894  23.125  1.00 11.39     0.316 A 
ATOM    321  N3   DG D  10      39.000  38.963  21.140  1.00 10.98    -0.038 NA
ATOM    322  C2   DG D  10      39.969  38.427  21.873  1.00  8.78     0.773 A 
ATOM    323  N1   DG D  10      39.774  37.459  22.821  1.00  9.45    -0.016 NA
ATOM    324  N2   DG D  10      41.230  38.809  21.702  1.00 10.60     0.062 N 
ATOM    325  O6   DG D  10      38.499  36.046  24.047  1.00 10.46    -0.263 OA
ENDBRANCH 187 315
ENDBRANCH 183 184
ENDBRANCH 182 183
ENDBRANCH 179 182
ENDBRANCH 178 179
ENDBRANCH 168 178
ENDBRANCH   1 164
TORSDOF 92
ENDMDL
MODEL 5
REMARK VINA RESULT:      -0.2      3.530     10.179
REMARK WARNING: 32 MAX_TORS EXCEEDED!!!
REMARK  92 active torsions:
REMARK  status: ('A' for Active; 'I' for Inactive)
REMARK    1  A    between atoms: C5'_1  and  C4'_3 
REMARK    2  A    between atoms: C3'_5  and  O3'_6 
REMARK    3  A    between atoms: O3'_6  and  P_17 
REMARK    4  A    between atoms: C1'_8  and  N1_9 
REMARK    5  A    between atoms: P_17  and  O5'_19 
REMARK    6  A    between atoms: C5'_18  and  O5'_19 
REMARK    7  A    between atoms: C5'_18  and  C4'_20 
REMARK    8  A    between atoms: C3'_22  and  O3'_23 
REMARK    9  A    between atoms: O3'_23  and  P_39 
REMARK   10  A    between atoms: C1'_25  and  N9_36 
REMARK   11  A    between atoms: P_39  and  O5'_41 
REMARK   12  A    between atoms: C5'_40  and  O5'_41 
REMARK   13  A    between atoms: C5'_40  and  C4'_42 
REMARK   14  A    between atoms: C3'_44  and  O3'_45 
REMARK   15  A    between atoms: O3'_45  and  P_59 
REMARK   16  A    between atoms: C1'_47  and  N1_48 
REMARK   17  A    between atoms: P_59  and  O5'_61 
REMARK   18  A    between atoms: C5'_60  and  C4'_62 
REMARK   19  A    between atoms: C5'_60  and  O5'_61 
REMARK   20  A    between atoms: C3'_64  and  O3'_65 
REMARK   21  A    between atoms: O3'_65  and  P_79 
REMARK   22  A    between atoms: C1'_67  and  N1_68 
REMARK   23  A    between atoms: P_79  and  O5'_81 
REMARK   24  A    between atoms: C5'_80  and  C4'_82 
REMARK   25  A    between atoms: C5'_80  and  O5'_81 
REMARK   26  A    between atoms: C3'_84  and  O3'_85 
REMARK   27  A    between atoms: O3'_85  and  P_100 
REMARK   28  A    between atoms: C1'_87  and  N9_97 
REMARK   29  A    between atoms: P_100  and  O5'_102 
REMARK   30  A    between atoms: C5'_101  and  C4'_103 
REMARK   31  A    between atoms: C5'_101  and  O5'_102 
REMARK   32  A    between atoms: C3'_105  and  O3'_106 
REMARK   33  A    between atoms: O3'_106  and  P_119 
REMARK   34  A    between atoms: C1'_108  and  N1_109 
REMARK   35  A    between atoms: P_119  and  O5'_121 
REMARK   36  A    between atoms: C5'_120  and  O5'_121 
REMARK   37  A    between atoms: C5'_120  and  C4'_122 
REMARK   38  A    between atoms: C3'_124  and  O3'_125 
REMARK   39  A    between atoms: O3'_125  and  P_138 
REMARK   40  A    between atoms: C1'_127  and  N1_128 
REMARK   41  A    between atoms: P_138  and  O5'_140 
REMARK   42  A    between atoms: C5'_139  and  C4'_141 
REMARK   43  A    between atoms: C5'_139  and  O5'_140 
REMARK   44  A    between atoms: C3'_143  and  O3'_144 
REMARK   45  A    between atoms: O3'_144  and  P_159 
REMARK   46  A    between atoms: C1'_146  and  N9_156 
REMARK   47  A    between atoms: P_159  and  O5'_161 
REMARK   48  A    between atoms: C5'_160  and  O5'_161 
REMARK   49  A    between atoms: C5'_160  and  C4'_162 
REMARK   50  A    between atoms: C3'_164  and  O3'_165 
REMARK   51  A    between atoms: O3'_165  and  P_179 
REMARK   52  A    between atoms: C1'_167  and  N1_168 
REMARK   53  A    between atoms: P_179  and  O5'_181 
REMARK   54  A    between atoms: C5'_180  and  C4'_182 
REMARK   55  A    between atoms: C5'_180  and  O5'_181 
REMARK   56  A    between atoms: C3'_184  and  O3'_185 
REMARK   57  A    between atoms: O3'_185  and  P_201 
REMARK   58  A    between atoms: C1'_187  and  N9_198 
REMARK   59  A    between atoms: P_201  and  O5'_203 
REMARK   60  A    between atoms: C5'_202  and  O5'_203 
REMARK   61  A    between atoms: C5'_202  and  C4'_204 
REMARK   62  A    between atoms: C3'_206  and  O3'_207 
REMARK   63  A    between atoms: O3'_207  and  P_223 
REMARK   64  A    between atoms: C1'_209  and  N9_220 
REMARK   65  A    between atoms: P_223  and  O5'_225 
REMARK   66  A    between atoms: C5'_224  and  O5'_225 
REMARK   67  A    between atoms: C5'_224  and  C4'_226 
REMARK   68  A    between atoms: C3'_228  and  O3'_229 
REMARK   69  A    between atoms: O3'_229  and  P_243 
REMARK   70  A    between atoms: C1'_231  and  N1_232 
REMARK   71  A    between atoms: P_243  and  O5'_245 
REMARK   72  A    between atoms: C5'_244  and  C4'_246 
REMARK   73  A    between atoms: C5'_244  and  O5'_245 
REMARK   74  A    between atoms: C3'_248  and  O3'_249 
REMARK   75  A    between atoms: O3'_249  and  P_264 
REMARK   76  A    between atoms: C1'_251  and  N9_261 
REMARK   77  A    between atoms: P_264  and  O5'_266 
REMARK   78  A    between atoms: C5'_265  and  C4'_267 
REMARK   79  A    between atoms: C5'_265  and  O5'_266 
REMARK   80  A    between atoms: C3'_269  and  O3'_270 
REMARK   81  A    between atoms: O3'_270  and  P_285 
REMARK   82  A    between atoms: C1'_272  and  N9_282 
REMARK   83  A    between atoms: P_285  and  O5'_287 
REMARK   84  A    between atoms: C5'_286  and  O5'_287 
REMARK   85  A    between atoms: C5'_286  and  C4'_288 
REMARK   86  A    between atoms: C3'_290  and  O3'_291 
REMARK   87  A    between atoms: O3'_291  and  P_304 
REMARK   88  A    between atoms: C1'_293  and  N1_294 
REMARK   89  A    between atoms: P_304  and  O5'_306 
REMARK   90  A    between atoms: C5'_305  and  C4'_307 
REMARK   91  A    between atoms: C5'_305  and  O5'_306 
REMARK   92  A    between atoms: C1'_312  and  N9_323 
ROOT
HETATM    1  C5' BRU D   9      42.992  37.826  11.443  1.00 14.48     0.187 C 
ENDROOT
BRANCH   1   2
HETATM    2  O5' BRU D   9      42.934  39.226  11.636  1.00 12.82    -0.268 OA
BRANCH   2   3
HETATM    3  P   BRU D   9      44.257  40.051  11.905  1.00 11.11     0.410 P 
HETATM    4  OP1 BRU D   9      44.932  40.384  10.596  1.00 14.53    -0.624 OA
HETATM    5  OP2 BRU D   9      43.827  41.151  12.809  1.00 12.75    -0.624 OA
BRANCH   3   6
ATOM      6  O3'  DA D   8      45.222  38.982  12.564  1.00 11.43    -0.271 OA
BRANCH   6   7
ATOM      7  C3'  DA D   8      45.986  39.357  13.693  1.00 10.57     0.161 C 
ATOM      8  C4'  DA D   8      45.051  39.574  14.879  1.00 11.52     0.175 C 
ATOM      9  O4'  DA D   8      45.701  40.558  15.701  1.00 11.40    -0.333 OA
ATOM     10  C1'  DA D   8      46.642  41.312  14.919  1.00 11.23     0.210 C 
ATOM     11  C2'  DA D   8      46.621  40.726  13.509  1.00 12.23     0.087 C 
BRANCH   8  12
ATOM     12  C5'  DA D   8      44.757  38.355  15.715  1.00 13.06     0.187 C 
BRANCH  12  13
ATOM     13  O5'  DA D   8      45.930  37.893  16.338  1.00 11.03    -0.268 OA
BRANCH  13  14
ATOM     14  P    DA D   8      45.901  37.543  17.912  1.00 12.25     0.410 P 
ATOM     15  OP2  DA D   8      45.850  38.865  18.633  1.00 11.74    -0.624 OA
ATOM     16  OP1  DA D   8      46.977  36.592  18.231  1.00 15.55    -0.624 OA
BRANCH  14  17
ATOM     17  O3'  DC D   7      44.515  36.774  18.134  1.00 12.10    -0.271 OA
BRANCH  17  18
ATOM     18  C3'  DC D   7      43.682  37.139  19.253  1.00 11.74     0.161 C 
ATOM     19  C2'  DC D   7      42.262  37.533  18.850  1.00 11.76     0.087 C 
ATOM     20  C1'  DC D   7      41.446  37.185  20.100  1.00 12.42     0.211 C 
ATOM     21  O4'  DC D   7      42.188  36.185  20.790  1.00 12.34    -0.333 OA
ATOM     22  C4'  DC D   7      43.437  35.909  20.100  1.00 11.56     0.175 C 
BRANCH  20  23
ATOM     23  N1   DC D   7      41.408  38.375  20.982  1.00 11.09    -0.256 N 
ATOM     24  C2   DC D   7      40.623  39.451  20.565  1.00  9.80     0.353 A 
ATOM     25  O2   DC D   7      40.065  39.337  19.458  1.00 10.91    -0.244 OA
ATOM     26  N3   DC D   7      40.498  40.561  21.333  1.00  9.76    -0.171 NA
ATOM     27  C4   DC D   7      41.170  40.654  22.469  1.00 11.68     0.190 A 
ATOM     28  N4   DC D   7      41.031  41.787  23.215  1.00 10.83    -0.127 N 
ATOM     29  C5   DC D   7      42.023  39.574  22.929  1.00 10.32     0.060 A 
ATOM     30  C6   DC D   7      42.107  38.459  22.154  1.00 11.95     0.085 A 
ENDBRANCH  20  23
BRANCH  22  31
ATOM     31  C5'  DC D   7      44.509  35.603  21.108  1.00 14.18     0.187 C 
BRANCH  31  32
ATOM     32  O5'  DC D   7      44.110  34.445  21.855  1.00 16.43    -0.268 OA
BRANCH  32  33
ATOM     33  P    DC D   7      44.454  34.367  23.404  1.00 18.54     0.410 P 
ATOM     34  OP1  DC D   7      45.194  33.132  23.620  1.00 22.71    -0.624 OA
ATOM     35  OP2  DC D   7      45.001  35.669  23.775  1.00 19.79    -0.624 OA
BRANCH  33  36
ATOM     36  O3'  DC D   6      43.009  34.065  24.055  1.00 17.13    -0.271 OA
BRANCH  36  37
ATOM     37  C3'  DC D   6      42.031  33.354  23.330  1.00 14.94     0.161 C 
ATOM     38  C4'  DC D   6      40.712  34.099  23.502  1.00 15.77     0.175 C 
ATOM     39  O4'  DC D   6      40.054  33.440  24.599  1.00 13.81    -0.333 OA
ATOM     40  C1'  DC D   6      40.935  32.514  25.171  1.00 12.86     0.211 C 
ATOM     41  C2'  DC D   6      41.783  32.028  24.024  1.00 14.65     0.087 C 
BRANCH  38  42
ATOM     42  C5'  DC D   6      39.842  34.054  22.270  1.00 18.13     0.187 C 
BRANCH  42  43
ATOM     43  O5'  DC D   6      38.871  33.023  22.412  1.00 19.27    -0.268 OA
BRANCH  43  44
ATOM     44  P    DC D   6      38.632  31.967  21.229  1.00 19.84     0.410 P 
ATOM     45  OP1  DC D   6      38.960  30.647  21.827  1.00 24.35    -0.624 OA
ATOM     46  OP2  DC D   6      37.301  32.202  20.671  1.00 20.92    -0.624 OA
BRANCH  44  47
ATOM     47  O3'  DA D   5      39.804  32.339  20.218  1.00 19.93    -0.271 OA
BRANCH  47  48
ATOM     48  C3'  DA D   5      39.503  32.856  18.923  1.00 16.89     0.161 C 
ATOM     49  C4'  DA D   5      39.915  31.770  17.934  1.00 17.32     0.175 C 
ATOM     50  O4'  DA D   5      41.261  32.083  17.560  1.00 18.24    -0.333 OA
ATOM     51  C1'  DA D   5      41.655  33.342  18.136  1.00 15.77     0.210 C 
ATOM     52  C2'  DA D   5      40.379  34.049  18.547  1.00 16.34     0.087 C 
BRANCH  49  53
ATOM     53  C5'  DA D   5      39.000  31.602  16.741  1.00 17.61     0.187 C 
BRANCH  53  54
ATOM     54  O5'  DA D   5      38.030  32.645  16.731  1.00 19.33    -0.268 OA
BRANCH  54  55
ATOM     55  P    DA D   5      36.491  32.290  16.699  1.00 20.74     0.410 P 
ATOM     56  OP2  DA D   5      36.155  31.269  17.718  1.00 23.47    -0.624 OA
ATOM     57  OP1  DA D   5      36.135  32.069  15.259  1.00 23.99    -0.624 OA
BRANCH  55  58
ATOM     58  O3'  DT D   4      35.800  33.706  17.052  1.00 19.59    -0.271 OA
BRANCH  58  59
ATOM     59  C3'  DT D   4      36.304  34.545  18.113  1.00 18.10     0.161 C 
ATOM     60  C4'  DT D   4      35.106  35.064  18.924  1.00 15.82     0.175 C 
ATOM     61  O4'  DT D   4      34.900  36.430  18.517  1.00 16.38    -0.333 OA
ATOM     62  C1'  DT D   4      35.752  36.781  17.431  1.00 15.63     0.211 C 
ATOM     63  C2'  DT D   4      36.946  35.821  17.564  1.00 16.56     0.087 C 
BRANCH  60  64
ATOM     64  C5'  DT D   4      35.257  35.059  20.431  1.00 17.08     0.187 C 
BRANCH  64  65
ATOM     65  O5'  DT D   4      36.601  35.433  20.794  1.00 15.07    -0.268 OA
BRANCH  65  66
ATOM     66  P    DT D   4      36.840  36.579  21.879  1.00 15.11     0.410 P 
ATOM     67  OP1  DT D   4      38.215  37.180  21.657  1.00 18.00    -0.624 OA
ATOM     68  OP2  DT D   4      35.631  37.452  21.808  1.00 17.03    -0.624 OA
BRANCH  66  69
HETATM   69  O3' BRU D   3      36.957  35.769  23.212  1.00 15.24    -0.271 OA
BRANCH  69  70
HETATM   70  C3' BRU D   3      36.790  36.395  24.489  1.00 13.22     0.161 C 
HETATM   71  C4' BRU D   3      38.097  36.094  25.221  1.00 14.89     0.175 C 
HETATM   72  O4' BRU D   3      37.734  35.585  26.519  1.00 16.05    -0.333 OA
HETATM   73  C1' BRU D   3      36.496  34.901  26.361  1.00 15.34     0.211 C 
HETATM   74  C2' BRU D   3      35.706  35.811  25.408  1.00 12.90     0.087 C 
BRANCH  71  75
HETATM   75  C5' BRU D   3      39.139  37.177  25.324  1.00 17.61     0.187 C 
BRANCH  75  76
HETATM   76  O5' BRU D   3      38.753  38.178  26.245  1.00 15.66    -0.268 OA
BRANCH  76  77
HETATM   77  P   BRU D   3      38.593  39.668  25.691  1.00 16.77     0.410 P 
HETATM   78  OP1 BRU D   3      39.802  40.416  26.141  1.00 18.57    -0.624 OA
HETATM   79  OP2 BRU D   3      38.225  39.615  24.249  1.00 18.18    -0.624 OA
BRANCH  77  80
ATOM     80  O3'  DG D   2      37.354  40.264  26.494  1.00 17.32    -0.271 OA
BRANCH  80  81
ATOM     81  C3'  DG D   2      36.382  39.412  27.078  1.00 15.47     0.161 C 
ATOM     82  C2'  DG D   2      36.230  39.742  28.570  1.00 16.87     0.087 C 
ATOM     83  C1'  DG D   2      35.394  41.021  28.531  1.00 16.11     0.210 C 
ATOM     84  O4'  DG D   2      34.559  40.896  27.373  1.00 18.37    -0.333 OA
ATOM     85  C4'  DG D   2      35.056  39.878  26.476  1.00 18.34     0.175 C 
BRANCH  83  86
ATOM     86  N9   DG D   2      34.499  41.223  29.669  1.00 16.03    -0.272 N 
ATOM     87  C8   DG D   2      33.160  40.926  29.749  1.00 14.57     0.182 A 
ATOM     88  N7   DG D   2      32.604  41.317  30.872  1.00 16.34    -0.217 NA
ATOM     89  C5   DG D   2      33.663  41.910  31.582  1.00 13.99     0.175 A 
ATOM     90  C6   DG D   2      33.673  42.542  32.862  1.00 12.33     0.302 A 
ATOM     91  C4   DG D   2      34.844  41.823  30.866  1.00 12.94     0.172 A 
ATOM     92  O6   DG D   2      32.725  42.709  33.608  1.00 15.71    -0.263 OA
ATOM     93  N1   DG D   2      34.925  42.998  33.208  1.00 12.85    -0.174 NA
ATOM     94  C2   DG D   2      36.063  42.861  32.437  1.00 12.30     0.242 A 
ATOM     95  N2   DG D   2      37.248  43.355  32.961  1.00 15.13    -0.059 NA
ATOM     96  N3   DG D   2      36.074  42.261  31.219  1.00 14.89    -0.195 NA
ENDBRANCH  83  86
BRANCH  85  97
ATOM     97  C5'  DG D   2      34.014  38.806  26.269  1.00 20.11     0.187 C 
BRANCH  97  98
ATOM     98  O5'  DG D   2      32.742  39.242  26.737  1.00 21.44    -0.268 OA
BRANCH  98  99
ATOM     99  P    DG D   2      31.541  39.467  25.730  1.00 23.19     0.410 P 
ATOM    100  OP1  DG D   2      30.467  38.559  26.225  1.00 25.33    -0.624 OA
ATOM    101  OP2  DG D   2      31.249  40.887  25.483  1.00 23.21    -0.624 OA
BRANCH  99 102
ATOM    102  O3'  DC D   1      32.052  38.874  24.334  1.00 26.59    -0.271 OA
BRANCH 102 103
ATOM    103  C3'  DC D   1      31.126  38.168  23.518  1.00 27.88     0.161 C 
ATOM    104  C2'  DC D   1      30.851  39.016  22.292  1.00 26.06     0.087 C 
ATOM    105  C1'  DC D   1      32.118  38.771  21.506  1.00 24.51     0.211 C 
ATOM    106  O4'  DC D   1      32.440  37.388  21.720  1.00 29.50    -0.333 OA
ATOM    107  C4'  DC D   1      31.849  36.951  22.954  1.00 29.48     0.178 C 
BRANCH 105 108
ATOM    108  N1   DC D   1      32.079  38.979  20.054  1.00 21.38    -0.256 N 
ATOM    109  C6   DC D   1      31.389  38.135  19.226  1.00 19.62     0.085 A 
ATOM    110  C5   DC D   1      31.439  38.288  17.888  1.00 19.43     0.060 A 
ATOM    111  C4   DC D   1      32.200  39.389  17.385  1.00 17.00     0.190 A 
ATOM    112  N4   DC D   1      32.278  39.616  16.073  1.00 18.52    -0.127 N 
ATOM    113  N3   DC D   1      32.851  40.233  18.201  1.00 17.32    -0.171 NA
ATOM    114  C2   DC D   1      32.808  40.040  19.527  1.00 18.49     0.353 A 
ATOM    115  O2   DC D   1      33.415  40.789  20.299  1.00 18.51    -0.244 OA
ENDBRANCH 105 108
BRANCH 107 116
ATOM    116  C5'  DC D   1      30.988  35.728  22.726  1.00 31.78     0.214 C 
ATOM    117  O5'  DC D   1      29.812  35.786  23.539  1.00 34.90    -0.218 OA
ENDBRANCH 107 116
ENDBRANCH 102 103
ENDBRANCH  99 102
ENDBRANCH  98  99
ENDBRANCH  97  98
ENDBRANCH  85  97
ENDBRANCH  80  81
ENDBRANCH  77  80
ENDBRANCH  76  77
ENDBRANCH  75  76
ENDBRANCH  71  75
BRANCH  73 118
HETATM  118  N1  BRU D   3      35.890  34.763  27.688  1.00 13.25    -0.255 N 
HETATM  119  C2  BRU D   3      36.163  33.625  28.479  1.00 11.90     0.354 A 
HETATM  120  O2  BRU D   3      36.868  32.710  28.099  1.00 16.11    -0.244 OA
HETATM  121  N3  BRU D   3      35.583  33.607  29.709  1.00 12.15    -0.153 NA
HETATM  122  C4  BRU D   3      34.812  34.568  30.234  1.00 12.48     0.291 A 
HETATM  123  O4  BRU D   3      34.280  34.465  31.358  1.00 16.38    -0.264 OA
HETATM  124  C5  BRU D   3      34.593  35.647  29.334  1.00 14.67     0.110 A 
HETATM  125  C6  BRU D   3      35.113  35.699  28.143  1.00 13.17     0.094 A 
HETATM  126 BR   BRU D   3      33.321  37.200  29.968  1.00 24.07    -0.043 Br
ENDBRANCH  73 118
ENDBRANCH  69  70
ENDBRANCH  66  69
ENDBRANCH  65  66
ENDBRANCH  64  65
ENDBRANCH  60  64
BRANCH  62 127
ATOM    127  N1   DT D   4      36.009  38.245  17.559  1.00 13.98    -0.256 N 
ATOM    128  C2   DT D   4      35.849  39.033  16.454  1.00 13.56     0.354 A 
ATOM    129  O2   DT D   4      35.555  38.549  15.362  1.00 16.57    -0.244 OA
ATOM    130  N3   DT D   4      36.017  40.399  16.649  1.00 12.35    -0.153 NA
ATOM    131  C4   DT D   4      36.323  41.017  17.857  1.00 11.46     0.280 A 
ATOM    132  O4   DT D   4      36.397  42.253  17.947  1.00 13.76    -0.265 OA
ATOM    133  C5   DT D   4      36.540  40.102  18.961  1.00 12.51     0.053 A 
ATOM    134  C7   DT D   4      36.952  40.660  20.284  1.00 14.43     0.038 C 
ATOM    135  C6   DT D   4      36.367  38.793  18.774  1.00 14.14     0.083 A 
ENDBRANCH  62 127
ENDBRANCH  58  59
ENDBRANCH  55  58
ENDBRANCH  54  55
ENDBRANCH  53  54
ENDBRANCH  49  53
BRANCH  51 136
ATOM    136  N9   DA D   5      42.422  34.014  17.078  1.00 14.16    -0.272 N 
ATOM    137  C4   DA D   5      43.782  33.906  16.885  1.00 14.21     0.170 A 
ATOM    138  C5   DA D   5      44.029  34.521  15.666  1.00 12.40     0.155 A 
ATOM    139  N3   DA D   5      44.687  33.320  17.678  1.00 13.46    -0.205 NA
ATOM    140  C6   DA D   5      45.347  34.551  15.213  1.00 12.04     0.206 A 
ATOM    141  N7   DA D   5      42.867  35.021  15.139  1.00 14.47    -0.219 NA
ATOM    142  N6   DA D   5      45.694  35.129  14.046  1.00 12.46    -0.125 N 
ATOM    143  N1   DA D   5      46.297  33.975  15.986  1.00 13.98    -0.202 NA
ATOM    144  C2   DA D   5      45.908  33.398  17.140  1.00 14.25     0.202 A 
ATOM    145  C8   DA D   5      41.946  34.730  16.030  1.00 14.09     0.182 A 
ENDBRANCH  51 136
ENDBRANCH  47  48
ENDBRANCH  44  47
ENDBRANCH  43  44
ENDBRANCH  42  43
ENDBRANCH  38  42
BRANCH  40 146
ATOM    146  N1   DC D   6      40.139  31.494  25.912  1.00 11.89    -0.256 N 
ATOM    147  C2   DC D   6      40.158  31.554  27.317  1.00 11.45     0.353 A 
ATOM    148  O2   DC D   6      40.710  32.500  27.838  1.00 12.57    -0.244 OA
ATOM    149  N3   DC D   6      39.564  30.570  28.042  1.00 11.17    -0.171 NA
ATOM    150  C4   DC D   6      38.927  29.583  27.420  1.00 11.08     0.190 A 
ATOM    151  N4   DC D   6      38.360  28.606  28.147  1.00 10.70    -0.127 N 
ATOM    152  C5   DC D   6      38.842  29.535  25.979  1.00 10.83     0.060 A 
ATOM    153  C6   DC D   6      39.461  30.505  25.282  1.00 11.79     0.085 A 
ENDBRANCH  40 146
ENDBRANCH  36  37
ENDBRANCH  33  36
ENDBRANCH  32  33
ENDBRANCH  31  32
ENDBRANCH  22  31
ENDBRANCH  17  18
ENDBRANCH  14  17
ENDBRANCH  13  14
ENDBRANCH  12  13
ENDBRANCH   8  12
BRANCH  10 154
ATOM    154  N9   DA D   8      47.960  41.099  15.517  1.00 10.83    -0.272 N 
ATOM    155  C4   DA D   8      49.022  41.952  15.348  1.00  9.99     0.170 A 
ATOM    156  N3   DA D   8      49.048  43.096  14.612  1.00 10.21    -0.205 NA
ATOM    157  C5   DA D   8      50.042  41.433  16.114  1.00 10.31     0.155 A 
ATOM    158  C2   DA D   8      50.214  43.687  14.705  1.00 10.39     0.202 A 
ATOM    159  N1   DA D   8      51.304  43.295  15.402  1.00 11.14    -0.202 NA
ATOM    160  C6   DA D   8      51.231  42.176  16.159  1.00 10.09     0.206 A 
ATOM    161  N6   DA D   8      52.273  41.879  16.922  1.00 11.37    -0.125 N 
ATOM    162  N7   DA D   8      49.636  40.233  16.724  1.00 10.47    -0.219 NA
ATOM    163  C8   DA D   8      48.395  40.083  16.317  1.00 11.39     0.182 A 
ENDBRANCH  10 154
ENDBRANCH   6   7
ENDBRANCH   3   6
ENDBRANCH   2   3
ENDBRANCH   1   2
BRANCH   1 164
HETATM  164  C4' BRU D   9      42.153  37.117  12.482  1.00 14.07     0.175 C 
HETATM  165  O4' BRU D   9      41.798  38.065  13.533  1.00 13.32    -0.333 OA
HETATM  166  C1' BRU D   9      40.567  37.666  14.129  1.00 13.84     0.211 C 
HETATM  167  C2' BRU D   9      39.964  36.579  13.264  1.00 12.11     0.087 C 
HETATM  168  C3' BRU D   9      40.819  36.579  12.006  1.00 15.00     0.161 C 
BRANCH 166 169
HETATM  169  N1  BRU D   9      39.655  38.814  14.089  1.00 13.67    -0.255 N 
HETATM  170  C2  BRU D   9      39.785  39.769  15.032  1.00 11.22     0.354 A 
HETATM  171  O2  BRU D   9      40.605  39.668  15.917  1.00 13.50    -0.244 OA
HETATM  172  N3  BRU D   9      38.935  40.859  14.908  1.00 11.85    -0.153 NA
HETATM  173  C4  BRU D   9      38.019  41.013  13.945  1.00 10.30     0.291 A 
HETATM  174  O4  BRU D   9      37.357  42.079  13.844  1.00 12.93    -0.264 OA
HETATM  175  C5  BRU D   9      37.955  39.897  13.040  1.00 12.08     0.110 A 
HETATM  176  C6  BRU D   9      38.740  38.877  13.137  1.00 13.06     0.094 A 
HETATM  177 BR   BRU D   9      36.513  40.196  11.580  1.00 15.13    -0.043 Br
ENDBRANCH 166 169
BRANCH 168 178
HETATM  178  O3' BRU D   9      40.950  35.258  11.501  1.00 13.15    -0.271 OA
BRANCH 178 179
ATOM    179  P    DG D  10      40.848  35.049   9.937  1.00 14.52     0.410 P 
ATOM    180  OP2  DG D  10      40.001  36.090   9.266  1.00 14.92    -0.624 OA
ATOM    181  OP1  DG D  10      42.252  34.820   9.448  1.00 16.08    -0.624 OA
BRANCH 179 182
ATOM    182  O5'  DG D  10      40.012  33.679   9.768  1.00 14.63    -0.268 OA
BRANCH 182 183
ATOM    183  C5'  DG D  10      38.619  33.623  10.023  1.00 14.28     0.187 C 
BRANCH 183 184
ATOM    184  C4'  DG D  10      38.277  32.306  10.674  1.00 14.53     0.175 C 
ATOM    185  C3'  DG D  10      37.660  32.397  12.062  1.00 16.36     0.161 C 
ATOM    186  C2'  DG D  10      38.868  32.234  12.981  1.00 15.07     0.087 C 
ATOM    187  C1'  DG D  10      39.656  31.205  12.201  1.00 13.41     0.210 C 
ATOM    188  O4'  DG D  10      39.494  31.534  10.830  1.00 13.85    -0.333 OA
BRANCH 185 189
ATOM    189  O3'  DG D  10      36.769  31.281  12.122  1.00 20.48    -0.271 OA
BRANCH 189 190
ATOM    190  P    DG D  11      35.267  31.402  11.560  1.00 20.71     0.410 P 
ATOM    191  OP2  DG D  11      34.805  32.791  11.349  1.00 22.10    -0.624 OA
ATOM    192  OP1  DG D  11      35.157  30.394  10.473  1.00 24.32    -0.624 OA
BRANCH 190 193
ATOM    193  O5'  DG D  11      34.397  30.848  12.760  1.00 19.33    -0.268 OA
BRANCH 193 194
ATOM    194  C5'  DG D  11      34.390  29.451  13.031  1.00 18.66     0.187 C 
BRANCH 194 195
ATOM    195  C4'  DG D  11      33.115  29.097  13.754  1.00 18.71     0.175 C 
ATOM    196  C3'  DG D  11      32.613  30.211  14.649  1.00 19.69     0.161 C 
ATOM    197  C2'  DG D  11      33.244  29.879  15.990  1.00 18.26     0.087 C 
ATOM    198  C1'  DG D  11      33.148  28.358  15.980  1.00 15.98     0.210 C 
ATOM    199  O4'  DG D  11      33.244  27.950  14.625  1.00 17.85    -0.333 OA
BRANCH 196 200
ATOM    200  O3'  DG D  11      31.209  30.012  14.712  1.00 24.65    -0.271 OA
BRANCH 200 201
ATOM    201  P    DT D  12      30.256  31.001  13.964  1.00 28.19     0.410 P 
ATOM    202  OP2  DT D  12      30.724  31.392  12.615  1.00 27.85    -0.624 OA
ATOM    203  OP1  DT D  12      28.912  30.388  14.170  1.00 29.91    -0.624 OA
BRANCH 201 204
ATOM    204  O5'  DT D  12      30.370  32.344  14.794  1.00 28.66    -0.268 OA
BRANCH 204 205
ATOM    205  C5'  DT D  12      30.950  33.437  14.156  1.00 29.00     0.187 C 
BRANCH 205 206
ATOM    206  C4'  DT D  12      32.152  33.909  14.908  1.00 28.07     0.175 C 
ATOM    207  C3'  DT D  12      31.996  35.168  15.737  1.00 29.44     0.161 C 
ATOM    208  C2'  DT D  12      32.991  36.137  15.112  1.00 29.37     0.087 C 
ATOM    209  C1'  DT D  12      34.026  35.197  14.476  1.00 27.26     0.211 C 
ATOM    210  O4'  DT D  12      33.290  34.089  14.051  1.00 26.37    -0.333 OA
BRANCH 207 211
ATOM    211  O3'  DT D  12      32.401  34.694  16.994  1.00 31.26    -0.271 OA
BRANCH 211 212
ATOM    212  P    DA D  13      31.333  34.276  18.093  1.00 34.05     0.410 P 
ATOM    213  OP2  DA D  13      31.658  34.965  19.377  1.00 31.89    -0.624 OA
ATOM    214  OP1  DA D  13      30.052  34.526  17.415  1.00 33.32    -0.624 OA
BRANCH 212 215
ATOM    215  O5'  DA D  13      31.567  32.711  18.146  1.00 31.02    -0.268 OA
BRANCH 215 216
ATOM    216  C5'  DA D  13      32.834  32.192  18.550  1.00 27.53     0.187 C 
BRANCH 216 217
ATOM    217  C4'  DA D  13      32.711  31.550  19.910  1.00 25.33     0.175 C 
ATOM    218  O4'  DA D  13      31.325  31.459  20.322  1.00 22.92    -0.333 OA
ATOM    219  C1'  DA D  13      30.958  30.101  20.578  1.00 20.98     0.210 C 
ATOM    220  C2'  DA D  13      32.028  29.242  19.887  1.00 23.30     0.087 C 
ATOM    221  C3'  DA D  13      33.266  30.122  19.981  1.00 26.45     0.161 C 
BRANCH 219 222
ATOM    222  N9   DA D  13      29.612  29.931  20.050  1.00 17.31    -0.272 N 
ATOM    223  C8   DA D  13      29.250  29.218  18.961  1.00 17.58     0.182 A 
ATOM    224  N7   DA D  13      27.989  29.335  18.636  1.00 17.72    -0.219 NA
ATOM    225  C5   DA D  13      27.468  30.148  19.609  1.00 14.33     0.155 A 
ATOM    226  C6   DA D  13      26.179  30.647  19.853  1.00 14.45     0.206 A 
ATOM    227  C4   DA D  13      28.460  30.523  20.509  1.00 15.76     0.170 A 
ATOM    228  N6   DA D  13      25.096  30.418  19.057  1.00 15.52    -0.125 N 
ATOM    229  N1   DA D  13      26.022  31.405  20.938  1.00 14.59    -0.202 NA
ATOM    230  C2   DA D  13      27.077  31.694  21.711  1.00 15.74     0.202 A 
ATOM    231  N3   DA D  13      28.339  31.318  21.569  1.00 15.60    -0.205 NA
ENDBRANCH 219 222
BRANCH 221 232
ATOM    232  O3'  DA D  13      33.885  29.942  21.238  1.00 30.43    -0.271 OA
BRANCH 232 233
ATOM    233  P    DA D  14      35.135  28.960  21.353  1.00 32.07     0.410 P 
ATOM    234  OP2  DA D  14      34.651  27.622  21.653  1.00 33.16    -0.624 OA
ATOM    235  OP1  DA D  14      35.954  29.214  20.137  1.00 33.96    -0.624 OA
BRANCH 233 236
ATOM    236  O5'  DA D  14      35.918  29.555  22.578  1.00 31.87    -0.268 OA
BRANCH 236 237
ATOM    237  C5'  DA D  14      35.417  30.724  23.203  1.00 30.81     0.187 C 
BRANCH 237 238
ATOM    238  C4'  DA D  14      35.455  30.543  24.696  1.00 31.39     0.175 C 
ATOM    239  O4'  DA D  14      35.049  31.770  25.354  1.00 30.66    -0.333 OA
ATOM    240  C1'  DA D  14      34.014  31.460  26.268  1.00 28.20     0.210 C 
ATOM    241  C2'  DA D  14      33.294  30.268  25.669  1.00 29.16     0.087 C 
ATOM    242  C3'  DA D  14      34.491  29.469  25.190  1.00 31.09     0.161 C 
BRANCH 240 243
ATOM    243  N9   DA D  14      33.215  32.650  26.476  1.00 24.41    -0.272 N 
ATOM    244  C4   DA D  14      32.554  32.885  27.649  1.00 21.62     0.170 A 
ATOM    245  N3   DA D  14      32.591  32.117  28.762  1.00 18.94    -0.205 NA
ATOM    246  C5   DA D  14      31.824  34.024  27.438  1.00 22.12     0.155 A 
ATOM    247  C2   DA D  14      31.748  32.611  29.692  1.00 18.83     0.202 A 
ATOM    248  N1   DA D  14      31.003  33.694  29.614  1.00 18.79    -0.202 NA
ATOM    249  C6   DA D  14      31.033  34.450  28.478  1.00 19.52     0.206 A 
ATOM    250  N6   DA D  14      30.323  35.558  28.410  1.00 21.07    -0.125 N 
ATOM    251  N7   DA D  14      32.043  34.532  26.157  1.00 24.53    -0.219 NA
ATOM    252  C8   DA D  14      32.902  33.687  25.639  1.00 24.70     0.182 A 
ENDBRANCH 240 243
BRANCH 242 253
ATOM    253  O3'  DA D  14      35.136  28.851  26.281  1.00 31.14    -0.271 OA
BRANCH 253 254
ATOM    254  P    DC D  15      35.184  27.249  26.394  1.00 30.59     0.410 P 
ATOM    255  OP1  DC D  15      36.534  26.849  25.903  1.00 31.75    -0.624 OA
ATOM    256  OP2  DC D  15      33.955  26.597  25.844  1.00 29.87    -0.624 OA
BRANCH 254 257
ATOM    257  O5'  DC D  15      35.207  27.112  27.990  1.00 30.76    -0.268 OA
BRANCH 257 258
ATOM    258  C5'  DC D  15      34.572  25.971  28.627  1.00 28.28     0.187 C 
BRANCH 258 259
ATOM    259  C4'  DC D  15      33.405  26.403  29.496  1.00 28.15     0.175 C 
ATOM    260  O4'  DC D  15      33.853  27.123  30.667  1.00 23.18    -0.333 OA
ATOM    261  C1'  DC D  15      33.247  28.415  30.732  1.00 22.58     0.211 C 
ATOM    262  C2'  DC D  15      32.677  28.683  29.349  1.00 24.52     0.087 C 
ATOM    263  C3'  DC D  15      32.367  27.293  28.830  1.00 28.37     0.161 C 
BRANCH 261 264
ATOM    264  N1   DC D  15      34.299  29.372  31.084  1.00 18.64    -0.256 N 
ATOM    265  C6   DC D  15      35.558  29.247  30.560  1.00 16.47     0.085 A 
ATOM    266  C5   DC D  15      36.545  30.057  30.931  1.00 15.01     0.060 A 
ATOM    267  C4   DC D  15      36.232  31.061  31.921  1.00 13.33     0.190 A 
ATOM    268  N3   DC D  15      34.991  31.234  32.368  1.00 13.89    -0.171 NA
ATOM    269  N4   DC D  15      37.195  31.815  32.417  1.00 15.28    -0.127 N 
ATOM    270  C2   DC D  15      34.008  30.415  31.989  1.00 18.12     0.353 A 
ATOM    271  O2   DC D  15      32.838  30.518  32.422  1.00 20.47    -0.244 OA
ENDBRANCH 261 264
BRANCH 263 272
ATOM    272  O3'  DC D  15      31.065  26.922  29.258  1.00 31.34    -0.271 OA
BRANCH 272 273
ATOM    273  P    DG D  16      30.138  26.092  28.274  1.00 32.78     0.410 P 
ATOM    274  OP1  DG D  16      28.725  26.369  28.662  1.00 34.59    -0.624 OA
ATOM    275  OP2  DG D  16      30.649  24.698  28.271  1.00 31.45    -0.624 OA
BRANCH 273 276
ATOM    276  O5'  DG D  16      30.451  26.737  26.861  1.00 31.83    -0.268 OA
BRANCH 276 277
ATOM    277  C5'  DG D  16      30.177  26.029  25.662  1.00 31.48     0.187 C 
BRANCH 277 278
ATOM    278  C4'  DG D  16      28.902  26.552  25.051  1.00 29.56     0.178 C 
ATOM    279  C3'  DG D  16      28.926  26.671  23.521  1.00 29.50     0.186 C 
ATOM    280  C2'  DG D  16      29.138  28.163  23.302  1.00 28.21     0.090 C 
ATOM    281  O3'  DG D  16      27.616  26.335  23.011  1.00 31.52    -0.221 OA
ATOM    282  C1'  DG D  16      28.321  28.712  24.441  1.00 24.75     0.210 C 
ATOM    283  O4'  DG D  16      28.637  27.885  25.538  1.00 27.49    -0.333 OA
BRANCH 282 284
ATOM    284  N9   DG D  16      28.610  30.082  24.824  1.00 21.33    -0.271 N 
ATOM    285  C4   DG D  16      27.694  30.997  25.258  1.00 19.88     0.188 A 
ATOM    286  N3   DG D  16      26.365  30.766  25.443  1.00 18.33    -0.038 NA
ATOM    287  C5   DG D  16      28.404  32.160  25.449  1.00 17.85     0.176 A 
ATOM    288  C2   DG D  16      25.732  31.828  25.852  1.00 15.82     0.773 A 
ATOM    289  N1   DG D  16      26.355  33.055  26.048  1.00 16.33    -0.016 NA
ATOM    290  N2   DG D  16      24.391  31.766  26.126  1.00 16.23     0.062 N 
ATOM    291  C6   DG D  16      27.711  33.311  25.872  1.00 15.94     0.316 A 
ATOM    292  O6   DG D  16      28.147  34.475  26.088  1.00 18.70    -0.263 OA
ATOM    293  N7   DG D  16      29.754  31.956  25.189  1.00 18.48    -0.217 NA
ATOM    294  C8   DG D  16      29.825  30.711  24.809  1.00 19.50     0.182 A 
ENDBRANCH 282 284
ENDBRANCH 277 278
ENDBRANCH 276 277
ENDBRANCH 273 276
ENDBRANCH 272 273
ENDBRANCH 263 272
ENDBRANCH 258 259
ENDBRANCH 257 258
ENDBRANCH 254 257
ENDBRANCH 253 254
ENDBRANCH 242 253
ENDBRANCH 237 238
ENDBRANCH 236 237
ENDBRANCH 233 236
ENDBRANCH 232 233
ENDBRANCH 221 232
ENDBRANCH 216 217
ENDBRANCH 215 216
ENDBRANCH 212 215
ENDBRANCH 211 212
ENDBRANCH 207 211
BRANCH 209 295
ATOM    295  N1   DT D  12      34.725  35.686  13.282  1.00 25.54    -0.256 N 
ATOM    296  C6   DT D  12      34.031  36.214  12.212  1.00 22.97     0.083 A 
ATOM    297  C5   DT D  12      34.619  36.608  11.066  1.00 22.23     0.053 A 
ATOM    298  C4   DT D  12      36.045  36.476  10.961  1.00 20.03     0.280 A 
ATOM    299  C7   DT D  12      33.883  37.187   9.901  1.00 23.27     0.038 C 
ATOM    300  O4   DT D  12      36.671  36.780   9.949  1.00 18.53    -0.265 OA
ATOM    301  N3   DT D  12      36.693  35.971  12.089  1.00 19.51    -0.153 NA
ATOM    302  C2   DT D  12      36.107  35.562  13.256  1.00 22.25     0.354 A 
ATOM    303  O2   DT D  12      36.747  35.117  14.203  1.00 24.24    -0.244 OA
ENDBRANCH 209 295
ENDBRANCH 205 206
ENDBRANCH 204 205
ENDBRANCH 201 204
ENDBRANCH 200 201
ENDBRANCH 196 200
BRANCH 198 304
ATOM    304  N9   DG D  11      34.205  27.654  16.700  1.00 15.12    -0.271 N 
ATOM    305  C8   DG D  11      34.064  26.825  17.788  1.00 13.13     0.182 A 
ATOM    306  N7   DG D  11      35.209  26.429  18.280  1.00 13.46    -0.217 NA
ATOM    307  C5   DG D  11      36.161  27.037  17.470  1.00 11.37     0.176 A 
ATOM    308  C6   DG D  11      37.563  26.996  17.554  1.00 10.16     0.316 A 
ATOM    309  C4   DG D  11      35.567  27.771  16.472  1.00 12.33     0.188 A 
ATOM    310  O6   DG D  11      38.239  26.461  18.407  1.00 10.86    -0.263 OA
ATOM    311  N1   DG D  11      38.159  27.705  16.501  1.00 10.07    -0.016 NA
ATOM    312  C2   DG D  11      37.464  28.403  15.515  1.00 11.41     0.773 A 
ATOM    313  N2   DG D  11      38.193  29.013  14.533  1.00 10.83     0.062 N 
ATOM    314  N3   DG D  11      36.147  28.486  15.481  1.00 11.83    -0.038 NA
ENDBRANCH 198 304
ENDBRANCH 194 195
ENDBRANCH 193 194
ENDBRANCH 190 193
ENDBRANCH 189 190
ENDBRANCH 185 189
BRANCH 187 315
ATOM    315  N9   DG D  10      41.077  31.242  12.515  1.00 11.23    -0.271 N 
ATOM    316  C8   DG D  10      41.831  32.332  12.909  1.00 12.20     0.182 A 
ATOM    317  N7   DG D  10      43.076  32.010  13.195  1.00 12.66    -0.217 NA
ATOM    318  C5   DG D  10      43.140  30.644  12.940  1.00 10.47     0.176 A 
ATOM    319  C4   DG D  10      41.923  30.161  12.516  1.00 10.52     0.188 A 
ATOM    320  C6   DG D  10      44.245  29.714  13.041  1.00 11.39     0.316 A 
ATOM    321  N3   DG D  10      41.600  28.902  12.167  1.00 10.98    -0.038 NA
ATOM    322  C2   DG D  10      42.617  28.061  12.317  1.00  8.78     0.773 A 
ATOM    323  N1   DG D  10      43.872  28.431  12.718  1.00  9.45    -0.016 NA
ATOM    324  N2   DG D  10      42.452  26.761  12.093  1.00 10.60     0.062 N 
ATOM    325  O6   DG D  10      45.439  29.938  13.352  1.00 10.46    -0.263 OA
ENDBRANCH 187 315
ENDBRANCH 183 184
ENDBRANCH 182 183
ENDBRANCH 179 182
ENDBRANCH 178 179
ENDBRANCH 168 178
ENDBRANCH   1 164
TORSDOF 92
ENDMDL
MODEL 6
REMARK VINA RESULT:      -0.2      3.591     12.009
REMARK WARNING: 32 MAX_TORS EXCEEDED!!!
REMARK  92 active torsions:
REMARK  status: ('A' for Active; 'I' for Inactive)
REMARK    1  A    between atoms: C5'_1  and  C4'_3 
REMARK    2  A    between atoms: C3'_5  and  O3'_6 
REMARK    3  A    between atoms: O3'_6  and  P_17 
REMARK    4  A    between atoms: C1'_8  and  N1_9 
REMARK    5  A    between atoms: P_17  and  O5'_19 
REMARK    6  A    between atoms: C5'_18  and  O5'_19 
REMARK    7  A    between atoms: C5'_18  and  C4'_20 
REMARK    8  A    between atoms: C3'_22  and  O3'_23 
REMARK    9  A    between atoms: O3'_23  and  P_39 
REMARK   10  A    between atoms: C1'_25  and  N9_36 
REMARK   11  A    between atoms: P_39  and  O5'_41 
REMARK   12  A    between atoms: C5'_40  and  O5'_41 
REMARK   13  A    between atoms: C5'_40  and  C4'_42 
REMARK   14  A    between atoms: C3'_44  and  O3'_45 
REMARK   15  A    between atoms: O3'_45  and  P_59 
REMARK   16  A    between atoms: C1'_47  and  N1_48 
REMARK   17  A    between atoms: P_59  and  O5'_61 
REMARK   18  A    between atoms: C5'_60  and  C4'_62 
REMARK   19  A    between atoms: C5'_60  and  O5'_61 
REMARK   20  A    between atoms: C3'_64  and  O3'_65 
REMARK   21  A    between atoms: O3'_65  and  P_79 
REMARK   22  A    between atoms: C1'_67  and  N1_68 
REMARK   23  A    between atoms: P_79  and  O5'_81 
REMARK   24  A    between atoms: C5'_80  and  C4'_82 
REMARK   25  A    between atoms: C5'_80  and  O5'_81 
REMARK   26  A    between atoms: C3'_84  and  O3'_85 
REMARK   27  A    between atoms: O3'_85  and  P_100 
REMARK   28  A    between atoms: C1'_87  and  N9_97 
REMARK   29  A    between atoms: P_100  and  O5'_102 
REMARK   30  A    between atoms: C5'_101  and  C4'_103 
REMARK   31  A    between atoms: C5'_101  and  O5'_102 
REMARK   32  A    between atoms: C3'_105  and  O3'_106 
REMARK   33  A    between atoms: O3'_106  and  P_119 
REMARK   34  A    between atoms: C1'_108  and  N1_109 
REMARK   35  A    between atoms: P_119  and  O5'_121 
REMARK   36  A    between atoms: C5'_120  and  O5'_121 
REMARK   37  A    between atoms: C5'_120  and  C4'_122 
REMARK   38  A    between atoms: C3'_124  and  O3'_125 
REMARK   39  A    between atoms: O3'_125  and  P_138 
REMARK   40  A    between atoms: C1'_127  and  N1_128 
REMARK   41  A    between atoms: P_138  and  O5'_140 
REMARK   42  A    between atoms: C5'_139  and  C4'_141 
REMARK   43  A    between atoms: C5'_139  and  O5'_140 
REMARK   44  A    between atoms: C3'_143  and  O3'_144 
REMARK   45  A    between atoms: O3'_144  and  P_159 
REMARK   46  A    between atoms: C1'_146  and  N9_156 
REMARK   47  A    between atoms: P_159  and  O5'_161 
REMARK   48  A    between atoms: C5'_160  and  O5'_161 
REMARK   49  A    between atoms: C5'_160  and  C4'_162 
REMARK   50  A    between atoms: C3'_164  and  O3'_165 
REMARK   51  A    between atoms: O3'_165  and  P_179 
REMARK   52  A    between atoms: C1'_167  and  N1_168 
REMARK   53  A    between atoms: P_179  and  O5'_181 
REMARK   54  A    between atoms: C5'_180  and  C4'_182 
REMARK   55  A    between atoms: C5'_180  and  O5'_181 
REMARK   56  A    between atoms: C3'_184  and  O3'_185 
REMARK   57  A    between atoms: O3'_185  and  P_201 
REMARK   58  A    between atoms: C1'_187  and  N9_198 
REMARK   59  A    between atoms: P_201  and  O5'_203 
REMARK   60  A    between atoms: C5'_202  and  O5'_203 
REMARK   61  A    between atoms: C5'_202  and  C4'_204 
REMARK   62  A    between atoms: C3'_206  and  O3'_207 
REMARK   63  A    between atoms: O3'_207  and  P_223 
REMARK   64  A    between atoms: C1'_209  and  N9_220 
REMARK   65  A    between atoms: P_223  and  O5'_225 
REMARK   66  A    between atoms: C5'_224  and  O5'_225 
REMARK   67  A    between atoms: C5'_224  and  C4'_226 
REMARK   68  A    between atoms: C3'_228  and  O3'_229 
REMARK   69  A    between atoms: O3'_229  and  P_243 
REMARK   70  A    between atoms: C1'_231  and  N1_232 
REMARK   71  A    between atoms: P_243  and  O5'_245 
REMARK   72  A    between atoms: C5'_244  and  C4'_246 
REMARK   73  A    between atoms: C5'_244  and  O5'_245 
REMARK   74  A    between atoms: C3'_248  and  O3'_249 
REMARK   75  A    between atoms: O3'_249  and  P_264 
REMARK   76  A    between atoms: C1'_251  and  N9_261 
REMARK   77  A    between atoms: P_264  and  O5'_266 
REMARK   78  A    between atoms: C5'_265  and  C4'_267 
REMARK   79  A    between atoms: C5'_265  and  O5'_266 
REMARK   80  A    between atoms: C3'_269  and  O3'_270 
REMARK   81  A    between atoms: O3'_270  and  P_285 
REMARK   82  A    between atoms: C1'_272  and  N9_282 
REMARK   83  A    between atoms: P_285  and  O5'_287 
REMARK   84  A    between atoms: C5'_286  and  O5'_287 
REMARK   85  A    between atoms: C5'_286  and  C4'_288 
REMARK   86  A    between atoms: C3'_290  and  O3'_291 
REMARK   87  A    between atoms: O3'_291  and  P_304 
REMARK   88  A    between atoms: C1'_293  and  N1_294 
REMARK   89  A    between atoms: P_304  and  O5'_306 
REMARK   90  A    between atoms: C5'_305  and  C4'_307 
REMARK   91  A    between atoms: C5'_305  and  O5'_306 
REMARK   92  A    between atoms: C1'_312  and  N9_323 
ROOT
HETATM    1  C5' BRU D   9      34.409  40.779  13.857  1.00 14.48     0.187 C 
ENDROOT
BRANCH   1   2
HETATM    2  O5' BRU D   9      35.135  40.845  15.070  1.00 12.82    -0.268 OA
BRANCH   2   3
HETATM    3  P   BRU D   9      34.470  41.462  16.366  1.00 11.11     0.410 P 
HETATM    4  OP1 BRU D   9      33.387  42.438  15.976  1.00 14.53    -0.624 OA
HETATM    5  OP2 BRU D   9      34.126  40.280  17.202  1.00 12.75    -0.624 OA
BRANCH   3   6
ATOM      6  O3'  DA D   8      35.614  42.386  16.954  1.00 11.43    -0.271 OA
BRANCH   6   7
ATOM      7  C3'  DA D   8      35.730  42.520  18.357  1.00 10.57     0.161 C 
ATOM      8  C4'  DA D   8      36.299  41.229  18.936  1.00 11.52     0.175 C 
ATOM      9  O4'  DA D   8      35.764  41.140  20.268  1.00 11.40    -0.333 OA
ATOM     10  C1'  DA D   8      34.572  41.936  20.375  1.00 11.23     0.210 C 
ATOM     11  C2'  DA D   8      34.366  42.617  19.024  1.00 12.23     0.087 C 
BRANCH   8  12
ATOM     12  C5'  DA D   8      37.803  41.147  19.007  1.00 13.06     0.187 C 
BRANCH  12  13
ATOM     13  O5'  DA D   8      38.206  39.845  19.353  1.00 11.03    -0.268 OA
BRANCH  13  14
ATOM     14  P    DA D   8      38.919  39.592  20.777  1.00 12.25     0.410 P 
ATOM     15  OP2  DA D   8      39.848  38.423  20.578  1.00 11.74    -0.624 OA
ATOM     16  OP1  DA D   8      37.903  39.530  21.839  1.00 15.55    -0.624 OA
BRANCH  14  17
ATOM     17  O3'  DC D   7      39.789  40.910  21.038  1.00 12.10    -0.271 OA
BRANCH  17  18
ATOM     18  C3'  DC D   7      41.220  40.850  20.874  1.00 11.74     0.161 C 
ATOM     19  C2'  DC D   7      41.768  41.910  19.921  1.00 11.76     0.087 C 
ATOM     20  C1'  DC D   7      43.198  42.119  20.430  1.00 12.42     0.211 C 
ATOM     21  O4'  DC D   7      43.191  41.726  21.798  1.00 12.34    -0.333 OA
ATOM     22  C4'  DC D   7      41.876  41.236  22.181  1.00 11.56     0.175 C 
BRANCH  20  23
ATOM     23  N1   DC D   7      44.092  41.175  19.719  1.00 11.09    -0.256 N 
ATOM     24  C2   DC D   7      44.566  41.569  18.466  1.00  9.80     0.353 A 
ATOM     25  O2   DC D   7      44.150  42.658  18.031  1.00 10.91    -0.244 OA
ATOM     26  N3   DC D   7      45.423  40.784  17.768  1.00  9.76    -0.171 NA
ATOM     27  C4   DC D   7      45.776  39.604  18.250  1.00 11.68     0.190 A 
ATOM     28  N4   DC D   7      46.632  38.833  17.519  1.00 10.83    -0.127 N 
ATOM     29  C5   DC D   7      45.285  39.138  19.534  1.00 10.32     0.060 A 
ATOM     30  C6   DC D   7      44.449  39.958  20.228  1.00 11.95     0.085 A 
ENDBRANCH  20  23
BRANCH  22  31
ATOM     31  C5'  DC D   7      42.029  40.119  23.176  1.00 14.18     0.187 C 
BRANCH  31  32
ATOM     32  O5'  DC D   7      43.125  40.434  24.045  1.00 16.43    -0.268 OA
BRANCH  32  33
ATOM     33  P    DC D   7      42.981  40.160  25.603  1.00 18.54     0.410 P 
ATOM     34  OP1  DC D   7      43.900  41.057  26.288  1.00 22.71    -0.624 OA
ATOM     35  OP2  DC D   7      41.549  40.154  25.894  1.00 19.79    -0.624 OA
BRANCH  33  36
ATOM     36  O3'  DC D   6      43.676  38.711  25.756  1.00 17.13    -0.271 OA
BRANCH  36  37
ATOM     37  C3'  DC D   6      44.816  38.381  24.996  1.00 14.94     0.161 C 
ATOM     38  C4'  DC D   6      44.491  37.106  24.226  1.00 15.77     0.175 C 
ATOM     39  O4'  DC D   6      45.003  36.038  25.042  1.00 13.81    -0.333 OA
ATOM     40  C1'  DC D   6      45.431  36.564  26.267  1.00 12.86     0.211 C 
ATOM     41  C2'  DC D   6      45.922  37.952  25.942  1.00 14.65     0.087 C 
BRANCH  38  42
ATOM     42  C5'  DC D   6      45.122  37.064  22.856  1.00 18.13     0.187 C 
BRANCH  42  43
ATOM     43  O5'  DC D   6      45.371  35.711  22.489  1.00 19.27    -0.268 OA
BRANCH  43  44
ATOM     44  P    DC D   6      46.266  35.371  21.203  1.00 19.84     0.410 P 
ATOM     45  OP1  DC D   6      47.281  36.454  21.151  1.00 24.35    -0.624 OA
ATOM     46  OP2  DC D   6      46.694  33.976  21.302  1.00 20.92    -0.624 OA
BRANCH  44  47
ATOM     47  O3'  DA D   5      45.237  35.621  20.014  1.00 19.93    -0.271 OA
BRANCH  47  48
ATOM     48  C3'  DA D   5      43.907  35.112  20.092  1.00 16.89     0.161 C 
ATOM     49  C4'  DA D   5      43.701  34.285  18.827  1.00 17.32     0.175 C 
ATOM     50  O4'  DA D   5      43.123  35.181  17.873  1.00 18.24    -0.333 OA
ATOM     51  C1'  DA D   5      42.834  36.447  18.494  1.00 15.77     0.210 C 
ATOM     52  C2'  DA D   5      42.849  36.210  19.990  1.00 16.34     0.087 C 
BRANCH  49  53
ATOM     53  C5'  DA D   5      42.893  33.018  19.007  1.00 17.61     0.187 C 
BRANCH  53  54
ATOM     54  O5'  DA D   5      43.185  32.442  20.277  1.00 19.33    -0.268 OA
BRANCH  54  55
ATOM     55  P    DA D   5      44.056  31.127  20.364  1.00 20.74     0.410 P 
ATOM     56  OP2  DA D   5      45.089  31.097  19.303  1.00 23.47    -0.624 OA
ATOM     57  OP1  DA D   5      43.093  29.987  20.515  1.00 23.99    -0.624 OA
BRANCH  55  58
ATOM     58  O3'  DT D   4      44.733  31.253  21.825  1.00 19.59    -0.271 OA
BRANCH  58  59
ATOM     59  C3'  DT D   4      43.930  31.301  23.023  1.00 18.10     0.161 C 
ATOM     60  C4'  DT D   4      44.129  32.678  23.677  1.00 15.82     0.175 C 
ATOM     61  O4'  DT D   4      45.018  32.476  24.791  1.00 16.38    -0.333 OA
ATOM     62  C1'  DT D   4      45.515  31.141  24.821  1.00 15.63     0.211 C 
ATOM     63  C2'  DT D   4      44.441  30.323  24.083  1.00 16.56     0.087 C 
BRANCH  60  64
ATOM     64  C5'  DT D   4      42.885  33.358  24.210  1.00 17.08     0.187 C 
BRANCH  64  65
ATOM     65  O5'  DT D   4      41.718  32.573  23.892  1.00 15.07    -0.268 OA
BRANCH  65  66
ATOM     66  P    DT D   4      40.733  32.106  25.058  1.00 15.11     0.410 P 
ATOM     67  OP1  DT D   4      41.529  31.971  26.342  1.00 18.00    -0.624 OA
ATOM     68  OP2  DT D   4      39.576  33.049  25.002  1.00 17.03    -0.624 OA
BRANCH  66  69
HETATM   69  O3' BRU D   3      40.376  30.643  24.640  1.00 15.24    -0.271 OA
BRANCH  69  70
HETATM   70  C3' BRU D   3      39.360  29.894  25.316  1.00 13.22     0.161 C 
HETATM   71  C4' BRU D   3      39.920  28.473  25.364  1.00 14.89     0.175 C 
HETATM   72  O4' BRU D   3      38.872  27.602  24.895  1.00 16.05    -0.333 OA
HETATM   73  C1' BRU D   3      38.110  28.346  23.952  1.00 15.34     0.211 C 
HETATM   74  C2' BRU D   3      38.015  29.740  24.590  1.00 12.90     0.087 C 
BRANCH  71  75
HETATM   75  C5' BRU D   3      40.523  27.970  26.650  1.00 17.61     0.187 C 
BRANCH  75  76
HETATM   76  O5' BRU D   3      39.993  28.654  27.769  1.00 15.66    -0.268 OA
BRANCH  76  77
HETATM   77  P   BRU D   3      38.906  27.888  28.656  1.00 16.77     0.410 P 
HETATM   78  OP1 BRU D   3      37.601  28.556  28.389  1.00 18.57    -0.624 OA
HETATM   79  OP2 BRU D   3      39.065  26.420  28.459  1.00 18.18    -0.624 OA
BRANCH  77  80
ATOM     80  O3'  DG D   2      39.302  28.230  30.159  1.00 17.32    -0.271 OA
BRANCH  80  81
ATOM     81  C3'  DG D   2      40.632  28.584  30.504  1.00 15.47     0.161 C 
ATOM     82  C2'  DG D   2      40.676  30.046  30.972  1.00 16.87     0.087 C 
ATOM     83  C1'  DG D   2      40.110  29.946  32.388  1.00 16.11     0.210 C 
ATOM     84  O4'  DG D   2      40.510  28.656  32.870  1.00 18.37    -0.333 OA
ATOM     85  C4'  DG D   2      40.916  27.795  31.783  1.00 18.34     0.175 C 
BRANCH  83  86
ATOM     86  N9   DG D   2      40.626  30.925  33.343  1.00 16.03    -0.272 N 
ATOM     87  C8   DG D   2      39.919  31.877  34.037  1.00 14.57     0.182 A 
ATOM     88  N7   DG D   2      40.679  32.678  34.747  1.00 16.34    -0.217 NA
ATOM     89  C5   DG D   2      41.981  32.209  34.503  1.00 13.99     0.175 A 
ATOM     90  C6   DG D   2      43.237  32.693  34.978  1.00 12.33     0.302 A 
ATOM     91  C4   DG D   2      41.958  31.104  33.669  1.00 12.94     0.172 A 
ATOM     92  O6   DG D   2      43.431  33.652  35.703  1.00 15.71    -0.263 OA
ATOM     93  N1   DG D   2      44.295  31.947  34.506  1.00 12.85    -0.174 NA
ATOM     94  C2   DG D   2      44.185  30.844  33.681  1.00 12.30     0.242 A 
ATOM     95  N2   DG D   2      45.360  30.196  33.331  1.00 15.13    -0.059 NA
ATOM     96  N3   DG D   2      42.999  30.368  33.222  1.00 14.89    -0.195 NA
ENDBRANCH  83  86
BRANCH  85  97
ATOM     97  C5'  DG D   2      42.345  27.345  31.975  1.00 20.11     0.187 C 
BRANCH  97  98
ATOM     98  O5'  DG D   2      42.587  27.007  33.336  1.00 21.44    -0.268 OA
BRANCH  98  99
ATOM     99  P    DG D   2      44.001  26.458  33.796  1.00 23.19     0.410 P 
ATOM    100  OP1  DG D   2      44.350  27.285  34.986  1.00 25.33    -0.624 OA
ATOM    101  OP2  DG D   2      44.056  24.991  33.876  1.00 23.21    -0.624 OA
BRANCH  99 102
ATOM    102  O3'  DC D   1      45.009  26.872  32.624  1.00 26.59    -0.271 OA
BRANCH 102 103
ATOM    103  C3'  DC D   1      45.741  25.847  31.965  1.00 27.88     0.161 C 
ATOM    104  C2'  DC D   1      45.135  25.657  30.589  1.00 26.06     0.087 C 
ATOM    105  C1'  DC D   1      45.699  26.866  29.879  1.00 24.51     0.211 C 
ATOM    106  O4'  DC D   1      47.039  27.011  30.375  1.00 29.50    -0.333 OA
ATOM    107  C4'  DC D   1      47.131  26.395  31.670  1.00 29.48     0.178 C 
BRANCH 105 108
ATOM    108  N1   DC D   1      45.790  26.824  28.415  1.00 21.38    -0.256 N 
ATOM    109  C6   DC D   1      46.915  26.372  27.779  1.00 19.62     0.085 A 
ATOM    110  C5   DC D   1      47.016  26.426  26.435  1.00 19.43     0.060 A 
ATOM    111  C4   DC D   1      45.888  26.928  25.715  1.00 17.00     0.190 A 
ATOM    112  N4   DC D   1      45.907  26.992  24.383  1.00 18.52    -0.127 N 
ATOM    113  N3   DC D   1      44.775  27.343  26.341  1.00 17.32    -0.171 NA
ATOM    114  C2   DC D   1      44.712  27.306  27.679  1.00 18.49     0.353 A 
ATOM    115  O2   DC D   1      43.708  27.701  28.281  1.00 18.51    -0.244 OA
ENDBRANCH 105 108
BRANCH 107 116
ATOM    116  C5'  DC D   1      48.252  25.379  31.693  1.00 31.78     0.214 C 
ATOM    117  O5'  DC D   1      47.881  24.243  32.479  1.00 34.90    -0.218 OA
ENDBRANCH 107 116
ENDBRANCH 102 103
ENDBRANCH  99 102
ENDBRANCH  98  99
ENDBRANCH  97  98
ENDBRANCH  85  97
ENDBRANCH  80  81
ENDBRANCH  77  80
ENDBRANCH  76  77
ENDBRANCH  75  76
ENDBRANCH  71  75
BRANCH  73 118
HETATM  118  N1  BRU D   3      36.817  27.675  23.794  1.00 13.25    -0.255 N 
HETATM  119  C2  BRU D   3      36.745  26.401  23.190  1.00 11.90     0.354 A 
HETATM  120  O2  BRU D   3      37.721  25.823  22.751  1.00 16.11    -0.244 OA
HETATM  121  N3  BRU D   3      35.505  25.847  23.123  1.00 12.15    -0.153 NA
HETATM  122  C4  BRU D   3      34.372  26.383  23.596  1.00 12.48     0.291 A 
HETATM  123  O4  BRU D   3      33.261  25.833  23.463  1.00 16.38    -0.264 OA
HETATM  124  C5  BRU D   3      34.571  27.675  24.158  1.00 14.67     0.110 A 
HETATM  125  C6  BRU D   3      35.736  28.251  24.228  1.00 13.17     0.094 A 
HETATM  126 BR   BRU D   3      32.873  28.702  24.860  1.00 24.07    -0.043 Br
ENDBRANCH  73 118
ENDBRANCH  69  70
ENDBRANCH  66  69
ENDBRANCH  65  66
ENDBRANCH  64  65
ENDBRANCH  60  64
BRANCH  62 127
ATOM    127  N1   DT D   4      45.778  30.825  26.254  1.00 13.98    -0.256 N 
ATOM    128  C2   DT D   4      46.972  30.249  26.587  1.00 13.56     0.354 A 
ATOM    129  O2   DT D   4      47.794  29.943  25.725  1.00 16.57    -0.244 OA
ATOM    130  N3   DT D   4      47.200  30.055  27.944  1.00 12.35    -0.153 NA
ATOM    131  C4   DT D   4      46.329  30.400  28.973  1.00 11.46     0.280 A 
ATOM    132  O4   DT D   4      46.643  30.241  30.163  1.00 13.76    -0.265 OA
ATOM    133  C5   DT D   4      45.059  30.943  28.528  1.00 12.51     0.053 A 
ATOM    134  C7   DT D   4      44.023  31.272  29.551  1.00 14.43     0.038 C 
ATOM    135  C6   DT D   4      44.848  31.139  27.226  1.00 14.14     0.083 A 
ENDBRANCH  62 127
ENDBRANCH  58  59
ENDBRANCH  55  58
ENDBRANCH  54  55
ENDBRANCH  53  54
ENDBRANCH  49  53
BRANCH  51 136
ATOM    136  N9   DA D   5      41.532  36.847  17.943  1.00 14.16    -0.272 N 
ATOM    137  C4   DA D   5      41.231  38.085  17.420  1.00 14.21     0.170 A 
ATOM    138  C5   DA D   5      39.983  37.942  16.832  1.00 12.40     0.155 A 
ATOM    139  N3   DA D   5      41.975  39.198  17.445  1.00 13.46    -0.205 NA
ATOM    140  C6   DA D   5      39.429  39.060  16.210  1.00 12.04     0.206 A 
ATOM    141  N7   DA D   5      39.514  36.667  17.012  1.00 14.47    -0.219 NA
ATOM    142  N6   DA D   5      38.220  39.028  15.614  1.00 12.46    -0.125 N 
ATOM    143  N1   DA D   5      40.145  40.209  16.215  1.00 13.98    -0.202 NA
ATOM    144  C2   DA D   5      41.354  40.197  16.811  1.00 14.25     0.202 A 
ATOM    145  C8   DA D   5      40.450  36.064  17.709  1.00 14.09     0.182 A 
ENDBRANCH  51 136
ENDBRANCH  47  48
ENDBRANCH  44  47
ENDBRANCH  43  44
ENDBRANCH  42  43
ENDBRANCH  38  42
BRANCH  40 146
ATOM    146  N1   DC D   6      46.410  35.619  26.877  1.00 11.89    -0.256 N 
ATOM    147  C2   DC D   6      47.606  35.385  26.175  1.00 11.45     0.353 A 
ATOM    148  O2   DC D   6      47.828  36.057  25.190  1.00 12.57    -0.244 OA
ATOM    149  N3   DC D   6      48.470  34.433  26.614  1.00 11.17    -0.171 NA
ATOM    150  C4   DC D   6      48.203  33.761  27.730  1.00 11.08     0.190 A 
ATOM    151  N4   DC D   6      49.056  32.809  28.144  1.00 10.70    -0.127 N 
ATOM    152  C5   DC D   6      47.010  34.028  28.500  1.00 10.83     0.060 A 
ATOM    153  C6   DC D   6      46.158  34.957  28.031  1.00 11.79     0.085 A 
ENDBRANCH  40 146
ENDBRANCH  36  37
ENDBRANCH  33  36
ENDBRANCH  32  33
ENDBRANCH  31  32
ENDBRANCH  22  31
ENDBRANCH  17  18
ENDBRANCH  14  17
ENDBRANCH  13  14
ENDBRANCH  12  13
ENDBRANCH   8  12
BRANCH  10 154
ATOM    154  N9   DA D   8      34.825  42.948  21.400  1.00 10.83    -0.272 N 
ATOM    155  C4   DA D   8      35.051  42.656  22.722  1.00  9.99     0.170 A 
ATOM    156  N3   DA D   8      35.064  41.426  23.301  1.00 10.21    -0.205 NA
ATOM    157  C5   DA D   8      35.305  43.865  23.332  1.00 10.31     0.155 A 
ATOM    158  C2   DA D   8      35.354  41.510  24.576  1.00 10.39     0.202 A 
ATOM    159  N1   DA D   8      35.613  42.616  25.309  1.00 11.14    -0.202 NA
ATOM    160  C6   DA D   8      35.636  43.821  24.694  1.00 10.09     0.206 A 
ATOM    161  N6   DA D   8      36.008  44.872  25.411  1.00 11.37    -0.125 N 
ATOM    162  N7   DA D   8      35.193  44.916  22.404  1.00 10.47    -0.219 NA
ATOM    163  C8   DA D   8      34.891  44.305  21.279  1.00 11.39     0.182 A 
ENDBRANCH  10 154
ENDBRANCH   6   7
ENDBRANCH   3   6
ENDBRANCH   2   3
ENDBRANCH   1   2
BRANCH   1 164
HETATM  164  C4' BRU D   9      33.421  39.635  13.899  1.00 14.07     0.175 C 
HETATM  165  O4' BRU D   9      32.472  39.787  12.801  1.00 13.32    -0.333 OA
HETATM  166  C1' BRU D   9      31.983  38.504  12.421  1.00 13.84     0.211 C 
HETATM  167  C2' BRU D   9      32.838  37.461  13.110  1.00 12.11     0.087 C 
HETATM  168  C3' BRU D   9      33.999  38.249  13.697  1.00 15.00     0.161 C 
BRANCH 166 169
HETATM  169  N1  BRU D   9      32.186  38.353  10.977  1.00 13.67    -0.255 N 
HETATM  170  C2  BRU D   9      31.258  37.682  10.266  1.00 11.22     0.354 A 
HETATM  171  O2  BRU D   9      30.299  37.178  10.806  1.00 13.50    -0.244 OA
HETATM  172  N3  BRU D   9      31.474  37.624   8.896  1.00 11.85    -0.153 NA
HETATM  173  C4  BRU D   9      32.516  38.170   8.259  1.00 10.30     0.291 A 
HETATM  174  O4  BRU D   9      32.585  38.160   7.001  1.00 12.93    -0.264 OA
HETATM  175  C5  BRU D   9      33.451  38.810   9.145  1.00 12.08     0.110 A 
HETATM  176  C6  BRU D   9      33.265  38.877  10.420  1.00 13.06     0.094 A 
HETATM  177 BR   BRU D   9      35.042  39.626   8.096  1.00 15.13    -0.043 Br
ENDBRANCH 166 169
BRANCH 168 178
HETATM  178  O3' BRU D   9      34.406  37.678  14.933  1.00 13.15    -0.271 OA
BRANCH 178 179
ATOM    179  P    DG D  10      35.338  36.403  14.887  1.00 14.52     0.410 P 
ATOM    180  OP2  DG D  10      34.567  35.116  14.935  1.00 14.92    -0.624 OA
ATOM    181  OP1  DG D  10      36.314  36.631  13.765  1.00 16.08    -0.624 OA
BRANCH 179 182
ATOM    182  O5'  DG D  10      36.142  36.442  16.286  1.00 14.63    -0.268 OA
BRANCH 182 183
ATOM    183  C5'  DG D  10      35.668  37.188  17.394  1.00 14.28     0.187 C 
BRANCH 183 184
ATOM    184  C4'  DG D  10      36.427  36.789  18.635  1.00 14.53     0.175 C 
ATOM    185  C3'  DG D  10      36.221  35.356  19.101  1.00 16.36     0.161 C 
ATOM    186  C2'  DG D  10      35.115  35.495  20.145  1.00 15.07     0.087 C 
ATOM    187  C1'  DG D  10      35.519  36.805  20.784  1.00 13.41     0.210 C 
ATOM    188  O4'  DG D  10      35.998  37.631  19.734  1.00 13.85    -0.333 OA
BRANCH 185 189
ATOM    189  O3'  DG D  10      37.477  34.991  19.678  1.00 20.48    -0.271 OA
BRANCH 189 190
ATOM    190  P    DG D  11      37.790  33.459  20.055  1.00 20.71     0.410 P 
ATOM    191  OP2  DG D  11      36.726  32.507  19.670  1.00 22.10    -0.624 OA
ATOM    192  OP1  DG D  11      39.201  33.221  19.653  1.00 24.32    -0.624 OA
BRANCH 190 193
ATOM    193  O5'  DG D  11      37.784  33.479  21.637  1.00 19.33    -0.268 OA
BRANCH 193 194
ATOM    194  C5'  DG D  11      36.722  32.845  22.340  1.00 18.66     0.187 C 
BRANCH 194 195
ATOM    195  C4'  DG D  11      36.401  33.647  23.575  1.00 18.71     0.175 C 
ATOM    196  C3'  DG D  11      35.988  32.786  24.750  1.00 19.69     0.161 C 
ATOM    197  C2'  DG D  11      34.475  32.736  24.618  1.00 18.26     0.087 C 
ATOM    198  C1'  DG D  11      34.184  34.157  24.148  1.00 15.98     0.210 C 
ATOM    199  O4'  DG D  11      35.308  34.577  23.392  1.00 17.85    -0.333 OA
BRANCH 196 200
ATOM    200  O3'  DG D  11      36.348  33.546  25.893  1.00 24.65    -0.271 OA
BRANCH 200 201
ATOM    201  P    DT D  12      36.171  32.925  27.318  1.00 28.19     0.410 P 
ATOM    202  OP2  DT D  12      34.831  33.138  27.911  1.00 27.85    -0.624 OA
ATOM    203  OP1  DT D  12      36.737  31.555  27.156  1.00 29.91    -0.624 OA
BRANCH 201 204
ATOM    204  O5'  DT D  12      37.121  33.796  28.237  1.00 28.66    -0.268 OA
BRANCH 204 205
ATOM    205  C5'  DT D  12      38.474  33.472  28.238  1.00 29.00     0.187 C 
BRANCH 205 206
ATOM    206  C4'  DT D  12      38.930  33.122  29.617  1.00 28.07     0.175 C 
ATOM    207  C3'  DT D  12      38.223  33.805  30.771  1.00 29.44     0.161 C 
ATOM    208  C2'  DT D  12      39.331  34.589  31.460  1.00 29.37     0.087 C 
ATOM    209  C1'  DT D  12      40.593  33.801  31.078  1.00 27.26     0.211 C 
ATOM    210  O4'  DT D  12      40.341  33.327  29.789  1.00 26.37    -0.333 OA
BRANCH 207 211
ATOM    211  O3'  DT D  12      37.798  32.686  31.503  1.00 31.26    -0.271 OA
BRANCH 211 212
ATOM    212  P    DA D  13      36.377  32.665  32.212  1.00 34.05     0.410 P 
ATOM    213  OP2  DA D  13      36.559  32.893  33.678  1.00 31.89    -0.624 OA
ATOM    214  OP1  DA D  13      35.594  33.609  31.403  1.00 33.32    -0.624 OA
BRANCH 212 215
ATOM    215  O5'  DA D  13      35.900  31.197  31.862  1.00 31.02    -0.268 OA
BRANCH 215 216
ATOM    216  C5'  DA D  13      35.763  30.796  30.499  1.00 27.53     0.187 C 
BRANCH 216 217
ATOM    217  C4'  DA D  13      34.319  30.477  30.203  1.00 25.33     0.175 C 
ATOM    218  O4'  DA D  13      34.208  29.369  29.276  1.00 22.92    -0.333 OA
ATOM    219  C1'  DA D  13      33.451  28.299  29.849  1.00 20.98     0.210 C 
ATOM    220  C2'  DA D  13      33.442  28.558  31.363  1.00 23.30     0.087 C 
ATOM    221  C3'  DA D  13      33.500  30.078  31.436  1.00 26.45     0.161 C 
BRANCH 219 222
ATOM    222  N9   DA D  13      34.113  27.065  29.449  1.00 17.31    -0.272 N 
ATOM    223  C8   DA D  13      35.279  26.577  29.927  1.00 17.58     0.182 A 
ATOM    224  N7   DA D  13      35.711  25.512  29.306  1.00 17.72    -0.219 NA
ATOM    225  C5   DA D  13      34.737  25.248  28.379  1.00 14.33     0.155 A 
ATOM    226  C6   DA D  13      34.579  24.244  27.411  1.00 14.45     0.206 A 
ATOM    227  C4   DA D  13      33.724  26.199  28.458  1.00 15.76     0.170 A 
ATOM    228  N6   DA D  13      35.487  23.257  27.164  1.00 15.52    -0.125 N 
ATOM    229  N1   DA D  13      33.463  24.278  26.683  1.00 14.59    -0.202 NA
ATOM    230  C2   DA D  13      32.577  25.266  26.863  1.00 15.74     0.202 A 
ATOM    231  N3   DA D  13      32.626  26.283  27.710  1.00 15.60    -0.205 NA
ENDBRANCH 219 222
BRANCH 221 232
ATOM    232  O3'  DA D  13      32.198  30.611  31.304  1.00 30.43    -0.271 OA
BRANCH 232 233
ATOM    233  P    DA D  14      31.693  31.696  32.355  1.00 32.07     0.410 P 
ATOM    234  OP2  DA D  14      30.706  31.078  33.227  1.00 33.16    -0.624 OA
ATOM    235  OP1  DA D  14      32.927  32.306  32.921  1.00 33.96    -0.624 OA
BRANCH 233 236
ATOM    236  O5'  DA D  14      31.020  32.772  31.431  1.00 31.87    -0.268 OA
BRANCH 236 237
ATOM    237  C5'  DA D  14      31.669  34.020  31.254  1.00 30.81     0.187 C 
BRANCH 237 238
ATOM    238  C4'  DA D  14      32.135  34.139  29.829  1.00 31.39     0.175 C 
ATOM    239  O4'  DA D  14      31.887  32.896  29.123  1.00 30.66    -0.333 OA
ATOM    240  C1'  DA D  14      31.165  33.193  27.943  1.00 28.20     0.210 C 
ATOM    241  C2'  DA D  14      30.348  34.427  28.273  1.00 29.16     0.087 C 
ATOM    242  C3'  DA D  14      31.388  35.214  29.046  1.00 31.09     0.161 C 
BRANCH 240 243
ATOM    243  N9   DA D  14      30.416  32.015  27.556  1.00 24.41    -0.272 N 
ATOM    244  C4   DA D  14      30.297  31.627  26.250  1.00 21.62     0.170 A 
ATOM    245  N3   DA D  14      30.881  32.213  25.180  1.00 18.94    -0.205 NA
ATOM    246  C5   DA D  14      29.437  30.562  26.261  1.00 22.12     0.155 A 
ATOM    247  C2   DA D  14      30.469  31.613  24.044  1.00 18.83     0.202 A 
ATOM    248  N1   DA D  14      29.657  30.583  23.923  1.00 18.79    -0.202 NA
ATOM    249  C6   DA D  14      29.125  30.011  25.041  1.00 19.52     0.206 A 
ATOM    250  N6   DA D  14      28.346  28.954  24.929  1.00 21.07    -0.125 N 
ATOM    251  N7   DA D  14      29.037  30.251  27.561  1.00 24.53    -0.219 NA
ATOM    252  C8   DA D  14      29.674  31.133  28.293  1.00 24.70     0.182 A 
ENDBRANCH 240 243
BRANCH 242 253
ATOM    253  O3'  DA D  14      32.337  35.771  28.164  1.00 31.14    -0.271 OA
BRANCH 253 254
ATOM    254  P    DC D  15      32.896  37.258  28.404  1.00 30.59     0.410 P 
ATOM    255  OP1  DC D  15      33.815  37.161  29.574  1.00 31.75    -0.624 OA
ATOM    256  OP2  DC D  15      31.814  38.289  28.376  1.00 29.87    -0.624 OA
BRANCH 254 257
ATOM    257  O5'  DC D  15      33.814  37.394  27.098  1.00 30.76    -0.268 OA
BRANCH 257 258
ATOM    258  C5'  DC D  15      35.042  36.624  26.994  1.00 28.28     0.187 C 
BRANCH 258 259
ATOM    259  C4'  DC D  15      36.208  37.357  27.631  1.00 28.15     0.175 C 
ATOM    260  O4'  DC D  15      37.477  36.804  27.212  1.00 23.18    -0.333 OA
ATOM    261  C1'  DC D  15      38.300  37.810  26.621  1.00 22.58     0.211 C 
ATOM    262  C2'  DC D  15      37.379  38.977  26.305  1.00 24.52     0.087 C 
ATOM    263  C3'  DC D  15      36.292  38.851  27.355  1.00 28.37     0.161 C 
BRANCH 261 264
ATOM    264  N1   DC D  15      38.888  37.234  25.409  1.00 18.64    -0.256 N 
ATOM    265  C6   DC D  15      38.136  37.080  24.275  1.00 16.47     0.085 A 
ATOM    266  C5   DC D  15      38.629  36.486  23.193  1.00 15.01     0.060 A 
ATOM    267  C4   DC D  15      39.986  35.997  23.275  1.00 13.33     0.190 A 
ATOM    268  N3   DC D  15      40.743  36.220  24.347  1.00 13.89    -0.171 NA
ATOM    269  N4   DC D  15      40.492  35.293  22.279  1.00 15.28    -0.127 N 
ATOM    270  C2   DC D  15      40.236  36.817  25.428  1.00 18.12     0.353 A 
ATOM    271  O2   DC D  15      40.903  37.004  26.471  1.00 20.47    -0.244 OA
ENDBRANCH 261 264
BRANCH 263 272
ATOM    272  O3'  DC D  15      36.704  39.538  28.527  1.00 31.34    -0.271 OA
BRANCH 272 273
ATOM    273  P    DG D  16      35.753  40.648  29.142  1.00 32.78     0.410 P 
ATOM    274  OP1  DG D  16      35.577  40.326  30.587  1.00 34.59    -0.624 OA
ATOM    275  OP2  DG D  16      34.569  40.746  28.252  1.00 31.45    -0.624 OA
BRANCH 273 276
ATOM    276  O5'  DG D  16      36.604  41.975  28.981  1.00 31.83    -0.268 OA
BRANCH 276 277
ATOM    277  C5'  DG D  16      37.719  42.022  28.104  1.00 31.48     0.187 C 
BRANCH 277 278
ATOM    278  C4'  DG D  16      38.985  42.157  28.911  1.00 29.56     0.178 C 
ATOM    279  C3'  DG D  16      39.061  43.420  29.779  1.00 29.50     0.186 C 
ATOM    280  C2'  DG D  16      39.983  44.327  28.976  1.00 28.21     0.090 C 
ATOM    281  O3'  DG D  16      39.735  43.092  31.015  1.00 31.52    -0.221 OA
ATOM    282  C1'  DG D  16      40.942  43.304  28.429  1.00 24.75     0.210 C 
ATOM    283  O4'  DG D  16      40.124  42.229  28.026  1.00 27.49    -0.333 OA
BRANCH 282 284
ATOM    284  N9   DG D  16      41.721  43.721  27.276  1.00 21.33    -0.271 N 
ATOM    285  C4   DG D  16      43.014  44.157  27.307  1.00 19.88     0.188 A 
ATOM    286  N3   DG D  16      43.802  44.236  28.415  1.00 18.33    -0.038 NA
ATOM    287  C5   DG D  16      43.317  44.490  26.007  1.00 17.85     0.176 A 
ATOM    288  C2   DG D  16      44.988  44.701  28.145  1.00 15.82     0.773 A 
ATOM    289  N1   DG D  16      45.379  45.090  26.870  1.00 16.33    -0.016 NA
ATOM    290  N2   DG D  16      45.925  44.811  29.139  1.00 16.23     0.062 N 
ATOM    291  C6   DG D  16      44.594  45.011  25.724  1.00 15.94     0.316 A 
ATOM    292  O6   DG D  16      45.077  45.398  24.624  1.00 18.70    -0.263 OA
ATOM    293  N7   DG D  16      42.242  44.213  25.170  1.00 18.48    -0.217 NA
ATOM    294  C8   DG D  16      41.315  43.770  25.971  1.00 19.50     0.182 A 
ENDBRANCH 282 284
ENDBRANCH 277 278
ENDBRANCH 276 277
ENDBRANCH 273 276
ENDBRANCH 272 273
ENDBRANCH 263 272
ENDBRANCH 258 259
ENDBRANCH 257 258
ENDBRANCH 254 257
ENDBRANCH 253 254
ENDBRANCH 242 253
ENDBRANCH 237 238
ENDBRANCH 236 237
ENDBRANCH 233 236
ENDBRANCH 232 233
ENDBRANCH 221 232
ENDBRANCH 216 217
ENDBRANCH 215 216
ENDBRANCH 212 215
ENDBRANCH 211 212
ENDBRANCH 207 211
BRANCH 209 295
ATOM    295  N1   DT D  12      41.847  34.558  30.981  1.00 25.54    -0.256 N 
ATOM    296  C6   DT D  12      43.016  34.079  31.535  1.00 22.97     0.083 A 
ATOM    297  C5   DT D  12      44.175  34.767  31.537  1.00 22.23     0.053 A 
ATOM    298  C4   DT D  12      44.187  36.065  30.922  1.00 20.03     0.280 A 
ATOM    299  C7   DT D  12      45.451  34.261  32.127  1.00 23.27     0.038 C 
ATOM    300  O4   DT D  12      45.184  36.782  30.897  1.00 18.53    -0.265 OA
ATOM    301  N3   DT D  12      42.984  36.476  30.348  1.00 19.51    -0.153 NA
ATOM    302  C2   DT D  12      41.800  35.789  30.344  1.00 22.25     0.354 A 
ATOM    303  O2   DT D  12      40.778  36.225  29.826  1.00 24.24    -0.244 OA
ENDBRANCH 209 295
ENDBRANCH 205 206
ENDBRANCH 204 205
ENDBRANCH 201 204
ENDBRANCH 200 201
ENDBRANCH 196 200
BRANCH 198 304
ATOM    304  N9   DG D  11      33.021  34.309  23.279  1.00 15.12    -0.271 N 
ATOM    305  C8   DG D  11      32.836  33.764  22.031  1.00 13.13     0.182 A 
ATOM    306  N7   DG D  11      31.736  34.172  21.453  1.00 13.46    -0.217 NA
ATOM    307  C5   DG D  11      31.164  35.041  22.375  1.00 11.37     0.176 A 
ATOM    308  C6   DG D  11      29.987  35.801  22.275  1.00 10.16     0.316 A 
ATOM    309  C4   DG D  11      31.921  35.117  23.520  1.00 12.33     0.188 A 
ATOM    310  O6   DG D  11      29.250  35.904  21.318  1.00 10.86    -0.263 OA
ATOM    311  N1   DG D  11      29.734  36.508  23.460  1.00 10.07    -0.016 NA
ATOM    312  C2   DG D  11      30.557  36.503  24.584  1.00 11.41     0.773 A 
ATOM    313  N2   DG D  11      30.149  37.216  25.676  1.00 10.83     0.062 N 
ATOM    314  N3   DG D  11      31.693  35.832  24.645  1.00 11.83    -0.038 NA
ENDBRANCH 198 304
ENDBRANCH 194 195
ENDBRANCH 193 194
ENDBRANCH 190 193
ENDBRANCH 189 190
ENDBRANCH 185 189
BRANCH 187 315
ATOM    315  N9   DG D  10      34.398  37.479  21.422  1.00 11.23    -0.271 N 
ATOM    316  C8   DG D  10      34.303  37.913  22.732  1.00 12.20     0.182 A 
ATOM    317  N7   DG D  10      33.181  38.560  22.970  1.00 12.66    -0.217 NA
ATOM    318  C5   DG D  10      32.498  38.514  21.760  1.00 10.47     0.176 A 
ATOM    319  C4   DG D  10      33.230  37.848  20.803  1.00 10.52     0.188 A 
ATOM    320  C6   DG D  10      31.197  39.027  21.387  1.00 11.39     0.316 A 
ATOM    321  N3   DG D  10      32.897  37.594  19.523  1.00 10.98    -0.038 NA
ATOM    322  C2   DG D  10      31.722  38.119  19.195  1.00  8.78     0.773 A 
ATOM    323  N1   DG D  10      30.905  38.788  20.066  1.00  9.45    -0.016 NA
ATOM    324  N2   DG D  10      31.274  38.032  17.947  1.00 10.60     0.062 N 
ATOM    325  O6   DG D  10      30.347  39.613  22.099  1.00 10.46    -0.263 OA
ENDBRANCH 187 315
ENDBRANCH 183 184
ENDBRANCH 182 183
ENDBRANCH 179 182
ENDBRANCH 178 179
ENDBRANCH 168 178
ENDBRANCH   1 164
TORSDOF 92
ENDMDL
MODEL 7
REMARK VINA RESULT:      -0.2      3.485     10.453
REMARK WARNING: 32 MAX_TORS EXCEEDED!!!
REMARK  92 active torsions:
REMARK  status: ('A' for Active; 'I' for Inactive)
REMARK    1  A    between atoms: C5'_1  and  C4'_3 
REMARK    2  A    between atoms: C3'_5  and  O3'_6 
REMARK    3  A    between atoms: O3'_6  and  P_17 
REMARK    4  A    between atoms: C1'_8  and  N1_9 
REMARK    5  A    between atoms: P_17  and  O5'_19 
REMARK    6  A    between atoms: C5'_18  and  O5'_19 
REMARK    7  A    between atoms: C5'_18  and  C4'_20 
REMARK    8  A    between atoms: C3'_22  and  O3'_23 
REMARK    9  A    between atoms: O3'_23  and  P_39 
REMARK   10  A    between atoms: C1'_25  and  N9_36 
REMARK   11  A    between atoms: P_39  and  O5'_41 
REMARK   12  A    between atoms: C5'_40  and  O5'_41 
REMARK   13  A    between atoms: C5'_40  and  C4'_42 
REMARK   14  A    between atoms: C3'_44  and  O3'_45 
REMARK   15  A    between atoms: O3'_45  and  P_59 
REMARK   16  A    between atoms: C1'_47  and  N1_48 
REMARK   17  A    between atoms: P_59  and  O5'_61 
REMARK   18  A    between atoms: C5'_60  and  C4'_62 
REMARK   19  A    between atoms: C5'_60  and  O5'_61 
REMARK   20  A    between atoms: C3'_64  and  O3'_65 
REMARK   21  A    between atoms: O3'_65  and  P_79 
REMARK   22  A    between atoms: C1'_67  and  N1_68 
REMARK   23  A    between atoms: P_79  and  O5'_81 
REMARK   24  A    between atoms: C5'_80  and  C4'_82 
REMARK   25  A    between atoms: C5'_80  and  O5'_81 
REMARK   26  A    between atoms: C3'_84  and  O3'_85 
REMARK   27  A    between atoms: O3'_85  and  P_100 
REMARK   28  A    between atoms: C1'_87  and  N9_97 
REMARK   29  A    between atoms: P_100  and  O5'_102 
REMARK   30  A    between atoms: C5'_101  and  C4'_103 
REMARK   31  A    between atoms: C5'_101  and  O5'_102 
REMARK   32  A    between atoms: C3'_105  and  O3'_106 
REMARK   33  A    between atoms: O3'_106  and  P_119 
REMARK   34  A    between atoms: C1'_108  and  N1_109 
REMARK   35  A    between atoms: P_119  and  O5'_121 
REMARK   36  A    between atoms: C5'_120  and  O5'_121 
REMARK   37  A    between atoms: C5'_120  and  C4'_122 
REMARK   38  A    between atoms: C3'_124  and  O3'_125 
REMARK   39  A    between atoms: O3'_125  and  P_138 
REMARK   40  A    between atoms: C1'_127  and  N1_128 
REMARK   41  A    between atoms: P_138  and  O5'_140 
REMARK   42  A    between atoms: C5'_139  and  C4'_141 
REMARK   43  A    between atoms: C5'_139  and  O5'_140 
REMARK   44  A    between atoms: C3'_143  and  O3'_144 
REMARK   45  A    between atoms: O3'_144  and  P_159 
REMARK   46  A    between atoms: C1'_146  and  N9_156 
REMARK   47  A    between atoms: P_159  and  O5'_161 
REMARK   48  A    between atoms: C5'_160  and  O5'_161 
REMARK   49  A    between atoms: C5'_160  and  C4'_162 
REMARK   50  A    between atoms: C3'_164  and  O3'_165 
REMARK   51  A    between atoms: O3'_165  and  P_179 
REMARK   52  A    between atoms: C1'_167  and  N1_168 
REMARK   53  A    between atoms: P_179  and  O5'_181 
REMARK   54  A    between atoms: C5'_180  and  C4'_182 
REMARK   55  A    between atoms: C5'_180  and  O5'_181 
REMARK   56  A    between atoms: C3'_184  and  O3'_185 
REMARK   57  A    between atoms: O3'_185  and  P_201 
REMARK   58  A    between atoms: C1'_187  and  N9_198 
REMARK   59  A    between atoms: P_201  and  O5'_203 
REMARK   60  A    between atoms: C5'_202  and  O5'_203 
REMARK   61  A    between atoms: C5'_202  and  C4'_204 
REMARK   62  A    between atoms: C3'_206  and  O3'_207 
REMARK   63  A    between atoms: O3'_207  and  P_223 
REMARK   64  A    between atoms: C1'_209  and  N9_220 
REMARK   65  A    between atoms: P_223  and  O5'_225 
REMARK   66  A    between atoms: C5'_224  and  O5'_225 
REMARK   67  A    between atoms: C5'_224  and  C4'_226 
REMARK   68  A    between atoms: C3'_228  and  O3'_229 
REMARK   69  A    between atoms: O3'_229  and  P_243 
REMARK   70  A    between atoms: C1'_231  and  N1_232 
REMARK   71  A    between atoms: P_243  and  O5'_245 
REMARK   72  A    between atoms: C5'_244  and  C4'_246 
REMARK   73  A    between atoms: C5'_244  and  O5'_245 
REMARK   74  A    between atoms: C3'_248  and  O3'_249 
REMARK   75  A    between atoms: O3'_249  and  P_264 
REMARK   76  A    between atoms: C1'_251  and  N9_261 
REMARK   77  A    between atoms: P_264  and  O5'_266 
REMARK   78  A    between atoms: C5'_265  and  C4'_267 
REMARK   79  A    between atoms: C5'_265  and  O5'_266 
REMARK   80  A    between atoms: C3'_269  and  O3'_270 
REMARK   81  A    between atoms: O3'_270  and  P_285 
REMARK   82  A    between atoms: C1'_272  and  N9_282 
REMARK   83  A    between atoms: P_285  and  O5'_287 
REMARK   84  A    between atoms: C5'_286  and  O5'_287 
REMARK   85  A    between atoms: C5'_286  and  C4'_288 
REMARK   86  A    between atoms: C3'_290  and  O3'_291 
REMARK   87  A    between atoms: O3'_291  and  P_304 
REMARK   88  A    between atoms: C1'_293  and  N1_294 
REMARK   89  A    between atoms: P_304  and  O5'_306 
REMARK   90  A    between atoms: C5'_305  and  C4'_307 
REMARK   91  A    between atoms: C5'_305  and  O5'_306 
REMARK   92  A    between atoms: C1'_312  and  N9_323 
ROOT
HETATM    1  C5' BRU D   9      46.053  37.681  10.896  1.00 14.48     0.187 C 
ENDROOT
BRANCH   1   2
HETATM    2  O5' BRU D   9      45.116  38.661  10.494  1.00 12.82    -0.268 OA
BRANCH   2   3
HETATM    3  P   BRU D   9      45.460  40.199  10.631  1.00 11.11     0.410 P 
HETATM    4  OP1 BRU D   9      45.604  40.820   9.263  1.00 14.53    -0.624 OA
HETATM    5  OP2 BRU D   9      44.434  40.724  11.571  1.00 12.75    -0.624 OA
BRANCH   3   6
ATOM      6  O3'  DA D   8      46.940  40.189  11.196  1.00 11.43    -0.271 OA
BRANCH   6   7
ATOM      7  C3'  DA D   8      47.299  41.130  12.188  1.00 10.57     0.161 C 
ATOM      8  C4'  DA D   8      46.605  40.765  13.497  1.00 11.52     0.175 C 
ATOM      9  O4'  DA D   8      46.418  42.010  14.190  1.00 11.40    -0.333 OA
ATOM     10  C1'  DA D   8      46.455  43.105  13.259  1.00 11.23     0.210 C 
ATOM     11  C2'  DA D   8      46.734  42.509  11.881  1.00 12.23     0.087 C 
BRANCH   8  12
ATOM     12  C5'  DA D   8      47.354  39.813  14.394  1.00 13.06     0.187 C 
BRANCH  12  13
ATOM     13  O5'  DA D   8      48.271  40.515  15.196  1.00 11.03    -0.268 OA
BRANCH  13  14
ATOM     14  P    DA D   8      48.207  40.348  16.798  1.00 12.25     0.410 P 
ATOM     15  OP2  DA D   8      47.876  41.711  17.348  1.00 11.74    -0.624 OA
ATOM     16  OP1  DA D   8      49.413  39.653  17.276  1.00 15.55    -0.624 OA
BRANCH  14  17
ATOM     17  O3'  DC D   7      46.969  39.366  17.057  1.00 12.10    -0.271 OA
BRANCH  17  18
ATOM     18  C3'  DC D   7      45.822  39.860  17.778  1.00 11.74     0.161 C 
ATOM     19  C2'  DC D   7      44.508  39.695  17.017  1.00 11.76     0.087 C 
ATOM     20  C1'  DC D   7      43.473  39.597  18.143  1.00 12.42     0.211 C 
ATOM     21  O4'  DC D   7      44.180  39.136  19.290  1.00 12.34    -0.333 OA
ATOM     22  C4'  DC D   7      45.594  38.983  18.990  1.00 11.56     0.175 C 
BRANCH  20  23
ATOM     23  N1   DC D   7      42.992  40.963  18.459  1.00 11.09    -0.256 N 
ATOM     24  C2   DC D   7      42.047  41.520  17.595  1.00  9.80     0.353 A 
ATOM     25  O2   DC D   7      41.732  40.839  16.602  1.00 10.91    -0.244 OA
ATOM     26  N3   DC D   7      41.522  42.746  17.834  1.00  9.76    -0.171 NA
ATOM     27  C4   DC D   7      41.947  43.453  18.868  1.00 11.68     0.190 A 
ATOM     28  N4   DC D   7      41.407  44.688  19.077  1.00 10.83    -0.127 N 
ATOM     29  C5   DC D   7      42.950  42.929  19.777  1.00 10.32     0.060 A 
ATOM     30  C6   DC D   7      43.439  41.684  19.530  1.00 11.95     0.085 A 
ENDBRANCH  20  23
BRANCH  22  31
ATOM     31  C5'  DC D   7      46.405  39.343  20.203  1.00 14.18     0.187 C 
BRANCH  31  32
ATOM     32  O5'  DC D   7      46.500  38.185  21.044  1.00 16.43    -0.268 OA
BRANCH  32  33
ATOM     33  P    DC D   7      47.493  38.207  22.283  1.00 18.54     0.410 P 
ATOM     34  OP1  DC D   7      48.513  37.198  22.040  1.00 22.71    -0.624 OA
ATOM     35  OP2  DC D   7      47.835  39.608  22.518  1.00 19.79    -0.624 OA
BRANCH  33  36
ATOM     36  O3'  DC D   6      46.587  37.561  23.452  1.00 17.13    -0.271 OA
BRANCH  36  37
ATOM     37  C3'  DC D   6      45.675  36.527  23.162  1.00 14.94     0.161 C 
ATOM     38  C4'  DC D   6      44.406  36.808  23.958  1.00 15.77     0.175 C 
ATOM     39  O4'  DC D   6      44.547  36.037  25.165  1.00 13.81    -0.333 OA
ATOM     40  C1'  DC D   6      45.834  35.487  25.208  1.00 12.86     0.211 C 
ATOM     41  C2'  DC D   6      46.196  35.237  23.767  1.00 14.65     0.087 C 
BRANCH  38  42
ATOM     42  C5'  DC D   6      43.148  36.407  23.229  1.00 18.13     0.187 C 
BRANCH  42  43
ATOM     43  O5'  DC D   6      42.729  35.121  23.676  1.00 19.27    -0.268 OA
BRANCH  43  44
ATOM     44  P    DC D   6      42.509  33.930  22.626  1.00 19.84     0.410 P 
ATOM     45  OP1  DC D   6      42.962  32.708  23.338  1.00 24.35    -0.624 OA
ATOM     46  OP2  DC D   6      41.138  34.014  22.123  1.00 20.92    -0.624 OA
BRANCH  44  47
ATOM     47  O3'  DA D   5      43.599  34.269  21.515  1.00 19.93    -0.271 OA
BRANCH  47  48
ATOM     48  C3'  DA D   5      43.201  34.536  20.172  1.00 16.89     0.161 C 
ATOM     49  C4'  DA D   5      43.672  33.339  19.352  1.00 17.32     0.175 C 
ATOM     50  O4'  DA D   5      44.968  33.697  18.861  1.00 18.24    -0.333 OA
ATOM     51  C1'  DA D   5      45.266  35.064  19.202  1.00 15.77     0.210 C 
ATOM     52  C2'  DA D   5      43.949  35.719  19.560  1.00 16.34     0.087 C 
BRANCH  49  53
ATOM     53  C5'  DA D   5      42.731  32.898  18.253  1.00 17.61     0.187 C 
BRANCH  53  54
ATOM     54  O5'  DA D   5      41.577  33.735  18.247  1.00 19.33    -0.268 OA
BRANCH  54  55
ATOM     55  P    DA D   5      40.142  33.098  18.422  1.00 20.74     0.410 P 
ATOM     56  OP2  DA D   5      40.063  32.281  19.655  1.00 23.47    -0.624 OA
ATOM     57  OP1  DA D   5      39.775  32.504  17.095  1.00 23.99    -0.624 OA
BRANCH  55  58
ATOM     58  O3'  DT D   4      39.195  34.402  18.533  1.00 19.59    -0.271 OA
BRANCH  58  59
ATOM     59  C3'  DT D   4      39.581  35.547  19.323  1.00 18.10     0.161 C 
ATOM     60  C4'  DT D   4      38.368  35.981  20.161  1.00 15.82     0.175 C 
ATOM     61  O4'  DT D   4      37.822  37.146  19.514  1.00 16.38    -0.333 OA
ATOM     62  C1'  DT D   4      38.477  37.405  18.276  1.00 15.63     0.211 C 
ATOM     63  C2'  DT D   4      39.866  36.766  18.444  1.00 16.56     0.087 C 
BRANCH  60  64
ATOM     64  C5'  DT D   4      38.642  36.352  21.603  1.00 17.08     0.187 C 
BRANCH  64  65
ATOM     65  O5'  DT D   4      39.808  37.198  21.683  1.00 15.07    -0.268 OA
BRANCH  65  66
ATOM     66  P    DT D   4      39.758  38.538  22.550  1.00 15.11     0.410 P 
ATOM     67  OP1  DT D   4      40.752  39.528  21.971  1.00 18.00    -0.624 OA
ATOM     68  OP2  DT D   4      38.313  38.904  22.633  1.00 17.03    -0.624 OA
BRANCH  66  69
HETATM   69  O3' BRU D   3      40.375  38.086  23.913  1.00 15.24    -0.271 OA
BRANCH  69  70
HETATM   70  C3' BRU D   3      40.277  38.899  25.088  1.00 13.22     0.161 C 
HETATM   71  C4' BRU D   3      41.587  38.635  25.830  1.00 14.89     0.175 C 
HETATM   72  O4' BRU D   3      41.236  38.340  27.195  1.00 16.05    -0.333 OA
HETATM   73  C1' BRU D   3      39.959  37.711  27.164  1.00 15.34     0.211 C 
HETATM   74  C2' BRU D   3      39.191  38.516  26.105  1.00 12.90     0.087 C 
BRANCH  71  75
HETATM   75  C5' BRU D   3      42.687  39.662  25.751  1.00 17.61     0.187 C 
BRANCH  75  76
HETATM   76  O5' BRU D   3      42.651  40.364  24.524  1.00 15.66    -0.268 OA
BRANCH  76  77
HETATM   77  P   BRU D   3      44.040  40.616  23.777  1.00 16.77     0.410 P 
HETATM   78  OP1 BRU D   3      45.109  40.387  24.790  1.00 18.57    -0.624 OA
HETATM   79  OP2 BRU D   3      44.042  39.871  22.487  1.00 18.18    -0.624 OA
BRANCH  77  80
ATOM     80  O3'  DG D   2      44.041  42.173  23.447  1.00 17.32    -0.271 OA
BRANCH  80  81
ATOM     81  C3'  DG D   2      45.111  43.008  23.858  1.00 15.47     0.161 C 
ATOM     82  C2'  DG D   2      46.322  42.796  22.937  1.00 16.87     0.087 C 
ATOM     83  C1'  DG D   2      45.914  43.574  21.688  1.00 16.11     0.210 C 
ATOM     84  O4'  DG D   2      45.109  44.662  22.160  1.00 18.37    -0.333 OA
ATOM     85  C4'  DG D   2      44.646  44.423  23.508  1.00 18.34     0.175 C 
BRANCH  83  86
ATOM     86  N9   DG D   2      47.014  44.170  20.930  1.00 16.03    -0.272 N 
ATOM     87  C8   DG D   2      48.242  44.566  21.402  1.00 14.57     0.182 A 
ATOM     88  N7   DG D   2      48.983  45.160  20.495  1.00 16.34    -0.217 NA
ATOM     89  C5   DG D   2      48.179  45.146  19.342  1.00 13.99     0.175 A 
ATOM     90  C6   DG D   2      48.430  45.670  18.039  1.00 12.33     0.302 A 
ATOM     91  C4   DG D   2      46.978  44.503  19.589  1.00 12.94     0.172 A 
ATOM     92  O6   DG D   2      49.423  46.268  17.664  1.00 15.71    -0.263 OA
ATOM     93  N1   DG D   2      47.379  45.447  17.176  1.00 12.85    -0.174 NA
ATOM     94  C2   DG D   2      46.212  44.783  17.499  1.00 12.30     0.242 A 
ATOM     95  N2   DG D   2      45.273  44.624  16.491  1.00 15.13    -0.059 NA
ATOM     96  N3   DG D   2      45.957  44.276  18.733  1.00 14.89    -0.195 NA
ENDBRANCH  83  86
BRANCH  85  97
ATOM     97  C5'  DG D   2      45.123  45.520  24.429  1.00 20.11     0.187 C 
BRANCH  97  98
ATOM     98  O5'  DG D   2      44.452  45.451  25.683  1.00 21.44    -0.268 OA
BRANCH  98  99
ATOM     99  P    DG D   2      45.267  45.468  27.041  1.00 23.19     0.410 P 
ATOM    100  OP1  DG D   2      46.606  44.922  26.677  1.00 25.33    -0.624 OA
ATOM    101  OP2  DG D   2      45.163  46.744  27.764  1.00 23.21    -0.624 OA
BRANCH  99 102
ATOM    102  O3'  DC D   1      44.552  44.378  27.969  1.00 26.59    -0.271 OA
BRANCH 102 103
ATOM    103  C3'  DC D   1      43.900  43.279  27.346  1.00 27.88     0.161 C 
ATOM    104  C2'  DC D   1      44.428  42.008  27.980  1.00 26.06     0.087 C 
ATOM    105  C1'  DC D   1      43.681  42.033  29.293  1.00 24.51     0.211 C 
ATOM    106  O4'  DC D   1      42.370  42.530  28.978  1.00 29.50    -0.333 OA
ATOM    107  C4'  DC D   1      42.439  43.311  27.774  1.00 29.48     0.178 C 
BRANCH 105 108
ATOM    108  N1   DC D   1      43.494  40.763  30.004  1.00 21.38    -0.256 N 
ATOM    109  C6   DC D   1      43.626  39.558  29.367  1.00 19.62     0.085 A 
ATOM    110  C5   DC D   1      43.362  38.404  30.013  1.00 19.43     0.060 A 
ATOM    111  C4   DC D   1      42.987  38.498  31.390  1.00 17.00     0.190 A 
ATOM    112  N4   DC D   1      42.730  37.398  32.099  1.00 18.52    -0.127 N 
ATOM    113  N3   DC D   1      42.887  39.679  32.019  1.00 17.32    -0.171 NA
ATOM    114  C2   DC D   1      43.127  40.813  31.345  1.00 18.49     0.353 A 
ATOM    115  O2   DC D   1      43.023  41.915  31.894  1.00 18.51    -0.244 OA
ENDBRANCH 105 108
BRANCH 107 116
ATOM    116  C5'  DC D   1      41.447  42.798  26.753  1.00 31.78     0.214 C 
ATOM    117  O5'  DC D   1      40.437  42.010  27.390  1.00 34.90    -0.218 OA
ENDBRANCH 107 116
ENDBRANCH 102 103
ENDBRANCH  99 102
ENDBRANCH  98  99
ENDBRANCH  97  98
ENDBRANCH  85  97
ENDBRANCH  80  81
ENDBRANCH  77  80
ENDBRANCH  76  77
ENDBRANCH  75  76
ENDBRANCH  71  75
BRANCH  73 118
HETATM  118  N1  BRU D   3      39.386  37.800  28.510  1.00 13.25    -0.255 N 
HETATM  119  C2  BRU D   3      39.875  36.976  29.548  1.00 11.90     0.354 A 
HETATM  120  O2  BRU D   3      40.750  36.149  29.377  1.00 16.11    -0.244 OA
HETATM  121  N3  BRU D   3      39.302  37.159  30.767  1.00 12.15    -0.153 NA
HETATM  122  C4  BRU D   3      38.353  38.054  31.069  1.00 12.48     0.291 A 
HETATM  123  O4  BRU D   3      37.845  38.139  32.206  1.00 16.38    -0.264 OA
HETATM  124  C5  BRU D   3      37.928  38.805  29.938  1.00 14.67     0.110 A 
HETATM  125  C6  BRU D   3      38.435  38.652  28.750  1.00 13.17     0.094 A 
HETATM  126 BR   BRU D   3      36.369  40.191  30.219  1.00 24.07    -0.043 Br
ENDBRANCH  73 118
ENDBRANCH  69  70
ENDBRANCH  66  69
ENDBRANCH  65  66
ENDBRANCH  64  65
ENDBRANCH  60  64
BRANCH  62 127
ATOM    127  N1   DT D   4      38.403  38.880  18.065  1.00 13.98    -0.256 N 
ATOM    128  C2   DT D   4      38.060  39.345  16.826  1.00 13.56     0.354 A 
ATOM    129  O2   DT D   4      37.870  38.575  15.887  1.00 16.57    -0.244 OA
ATOM    130  N3   DT D   4      37.921  40.722  16.708  1.00 12.35    -0.153 NA
ATOM    131  C4   DT D   4      38.094  41.649  17.731  1.00 11.46     0.280 A 
ATOM    132  O4   DT D   4      37.892  42.860  17.545  1.00 13.76    -0.265 OA
ATOM    133  C5   DT D   4      38.521  41.076  18.994  1.00 12.51     0.053 A 
ATOM    134  C7   DT D   4      38.812  41.993  20.135  1.00 14.43     0.038 C 
ATOM    135  C6   DT D   4      38.642  39.752  19.108  1.00 14.14     0.083 A 
ENDBRANCH  62 127
ENDBRANCH  58  59
ENDBRANCH  55  58
ENDBRANCH  54  55
ENDBRANCH  53  54
ENDBRANCH  49  53
BRANCH  51 136
ATOM    136  N9   DA D   5      45.927  35.612  18.009  1.00 14.16    -0.272 N 
ATOM    137  C4   DA D   5      47.284  35.796  17.860  1.00 14.21     0.170 A 
ATOM    138  C5   DA D   5      47.466  36.122  16.524  1.00 12.40     0.155 A 
ATOM    139  N3   DA D   5      48.243  35.673  18.786  1.00 13.46    -0.205 NA
ATOM    140  C6   DA D   5      48.768  36.359  16.087  1.00 12.04     0.206 A 
ATOM    141  N7   DA D   5      46.259  36.170  15.876  1.00 14.47    -0.219 NA
ATOM    142  N6   DA D   5      49.052  36.689  14.812  1.00 12.46    -0.125 N 
ATOM    143  N1   DA D   5      49.770  36.251  16.991  1.00 13.98    -0.202 NA
ATOM    144  C2   DA D   5      49.446  35.910  18.255  1.00 14.25     0.202 A 
ATOM    145  C8   DA D   5      45.372  35.897  16.806  1.00 14.09     0.182 A 
ENDBRANCH  51 136
ENDBRANCH  47  48
ENDBRANCH  44  47
ENDBRANCH  43  44
ENDBRANCH  42  43
ENDBRANCH  38  42
BRANCH  40 146
ATOM    146  N1   DC D   6      45.819  34.309  26.123  1.00 11.89    -0.256 N 
ATOM    147  C2   DC D   6      46.966  34.081  26.902  1.00 11.45     0.353 A 
ATOM    148  O2   DC D   6      47.843  34.918  26.883  1.00 12.57    -0.244 OA
ATOM    149  N3   DC D   6      47.060  32.949  27.649  1.00 11.17    -0.171 NA
ATOM    150  C4   DC D   6      46.047  32.089  27.676  1.00 11.08     0.190 A 
ATOM    151  N4   DC D   6      46.159  30.964  28.402  1.00 10.70    -0.127 N 
ATOM    152  C5   DC D   6      44.834  32.334  26.931  1.00 10.83     0.060 A 
ATOM    153  C6   DC D   6      44.775  33.447  26.179  1.00 11.79     0.085 A 
ENDBRANCH  40 146
ENDBRANCH  36  37
ENDBRANCH  33  36
ENDBRANCH  32  33
ENDBRANCH  31  32
ENDBRANCH  22  31
ENDBRANCH  17  18
ENDBRANCH  14  17
ENDBRANCH  13  14
ENDBRANCH  12  13
ENDBRANCH   8  12
BRANCH  10 154
ATOM    154  N9   DA D   8      47.569  43.965  13.655  1.00 10.83    -0.272 N 
ATOM    155  C4   DA D   8      47.590  45.324  13.463  1.00  9.99     0.170 A 
ATOM    156  N3   DA D   8      46.627  46.087  12.879  1.00 10.21    -0.205 NA
ATOM    157  C5   DA D   8      48.770  45.761  14.023  1.00 10.31     0.155 A 
ATOM    158  C2   DA D   8      46.956  47.355  12.899  1.00 10.39     0.202 A 
ATOM    159  N1   DA D   8      48.075  47.927  13.399  1.00 11.14    -0.202 NA
ATOM    160  C6   DA D   8      48.994  47.145  14.012  1.00 10.09     0.206 A 
ATOM    161  N6   DA D   8      50.021  47.745  14.595  1.00 11.37    -0.125 N 
ATOM    162  N7   DA D   8      49.508  44.673  14.523  1.00 10.47    -0.219 NA
ATOM    163  C8   DA D   8      48.746  43.634  14.260  1.00 11.39     0.182 A 
ENDBRANCH  10 154
ENDBRANCH   6   7
ENDBRANCH   3   6
ENDBRANCH   2   3
ENDBRANCH   1   2
BRANCH   1 164
HETATM  164  C4' BRU D   9      45.480  36.831  12.008  1.00 14.07     0.175 C 
HETATM  165  O4' BRU D   9      44.740  37.689  12.928  1.00 13.32    -0.333 OA
HETATM  166  C1' BRU D   9      43.713  36.928  13.557  1.00 13.84     0.211 C 
HETATM  167  C2' BRU D   9      43.606  35.604  12.830  1.00 12.11     0.087 C 
HETATM  168  C3' BRU D   9      44.469  35.783  11.590  1.00 15.00     0.161 C 
BRANCH 166 169
HETATM  169  N1  BRU D   9      42.444  37.637  13.364  1.00 13.67    -0.255 N 
HETATM  170  C2  BRU D   9      41.722  37.966  14.455  1.00 11.22     0.354 A 
HETATM  171  O2  BRU D   9      42.085  37.650  15.565  1.00 13.50    -0.244 OA
HETATM  172  N3  BRU D   9      40.562  38.689  14.214  1.00 11.85    -0.153 NA
HETATM  173  C4  BRU D   9      40.126  39.062  13.005  1.00 10.30     0.291 A 
HETATM  174  O4  BRU D   9      39.116  39.804  12.880  1.00 12.93    -0.264 OA
HETATM  175  C5  BRU D   9      40.966  38.601  11.932  1.00 12.08     0.110 A 
HETATM  176  C6  BRU D   9      42.050  37.932  12.137  1.00 13.06     0.094 A 
HETATM  177 BR   BRU D   9      40.232  39.206  10.090  1.00 15.13    -0.043 Br
ENDBRANCH 166 169
BRANCH 168 178
HETATM  178  O3' BRU D   9      45.109  34.559  11.257  1.00 13.15    -0.271 OA
BRANCH 178 179
ATOM    179  P    DG D  10      44.405  33.620  10.198  1.00 14.52     0.410 P 
ATOM    180  OP2  DG D  10      43.224  34.270   9.539  1.00 14.92    -0.624 OA
ATOM    181  OP1  DG D  10      45.503  33.052   9.340  1.00 16.08    -0.624 OA
BRANCH 179 182
ATOM    182  O5'  DG D  10      43.769  32.427  11.079  1.00 14.63    -0.268 OA
BRANCH 182 183
ATOM    183  C5'  DG D  10      42.391  32.402  11.411  1.00 14.28     0.187 C 
BRANCH 183 184
ATOM    184  C4'  DG D  10      42.169  31.475  12.580  1.00 14.53     0.175 C 
ATOM    185  C3'  DG D  10      41.366  32.052  13.736  1.00 16.36     0.161 C 
ATOM    186  C2'  DG D  10      42.451  32.557  14.684  1.00 15.07     0.087 C 
ATOM    187  C1'  DG D  10      43.484  31.465  14.508  1.00 13.41     0.210 C 
ATOM    188  O4'  DG D  10      43.458  31.109  13.134  1.00 13.85    -0.333 OA
BRANCH 185 189
ATOM    189  O3'  DG D  10      40.655  30.930  14.263  1.00 20.48    -0.271 OA
BRANCH 189 190
ATOM    190  P    DG D  11      39.164  30.596  13.759  1.00 20.71     0.410 P 
ATOM    191  OP2  DG D  11      38.447  31.749  13.172  1.00 22.10    -0.624 OA
ATOM    192  OP1  DG D  11      39.261  29.310  13.021  1.00 24.32    -0.624 OA
BRANCH 190 193
ATOM    193  O5'  DG D  11      38.403  30.270  15.108  1.00 19.33    -0.268 OA
BRANCH 193 194
ATOM    194  C5'  DG D  11      38.769  29.117  15.856  1.00 18.66     0.187 C 
BRANCH 194 195
ATOM    195  C4'  DG D  11      37.602  28.694  16.710  1.00 18.71     0.175 C 
ATOM    196  C3'  DG D  11      36.865  29.865  17.328  1.00 19.69     0.161 C 
ATOM    197  C2'  DG D  11      37.551  30.024  18.674  1.00 18.26     0.087 C 
ATOM    198  C1'  DG D  11      37.791  28.565  19.045  1.00 15.98     0.210 C 
ATOM    199  O4'  DG D  11      37.977  27.858  17.830  1.00 17.85    -0.333 OA
BRANCH 196 200
ATOM    200  O3'  DG D  11      35.540  29.394  17.514  1.00 24.65    -0.271 OA
BRANCH 200 201
ATOM    201  P    DT D  12      34.392  29.949  16.608  1.00 28.19     0.410 P 
ATOM    202  OP2  DT D  12      34.712  29.966  15.163  1.00 27.85    -0.624 OA
ATOM    203  OP1  DT D  12      33.187  29.238  17.125  1.00 29.91    -0.624 OA
BRANCH 201 204
ATOM    204  O5'  DT D  12      34.315  31.484  16.984  1.00 28.66    -0.268 OA
BRANCH 204 205
ATOM    205  C5'  DT D  12      34.687  32.397  16.002  1.00 29.00     0.187 C 
BRANCH 205 206
ATOM    206  C4'  DT D  12      35.720  33.342  16.526  1.00 28.07     0.175 C 
ATOM    207  C3'  DT D  12      35.253  34.734  16.902  1.00 29.44     0.161 C 
ATOM    208  C2'  DT D  12      36.040  35.643  15.968  1.00 29.37     0.087 C 
ATOM    209  C1'  DT D  12      37.285  34.804  15.647  1.00 27.26     0.211 C 
ATOM    210  O4'  DT D  12      36.830  33.483  15.627  1.00 26.37    -0.333 OA
BRANCH 207 211
ATOM    211  O3'  DT D  12      35.690  34.795  18.234  1.00 31.26    -0.271 OA
BRANCH 211 212
ATOM    212  P    DA D  13      34.667  34.645  19.439  1.00 34.05     0.410 P 
ATOM    213  OP2  DA D  13      34.886  35.759  20.409  1.00 31.89    -0.624 OA
ATOM    214  OP1  DA D  13      33.375  34.496  18.753  1.00 33.32    -0.624 OA
BRANCH 212 215
ATOM    215  O5'  DA D  13      35.092  33.229  20.006  1.00 31.02    -0.268 OA
BRANCH 215 216
ATOM    216  C5'  DA D  13      36.448  32.987  20.380  1.00 27.53     0.187 C 
BRANCH 216 217
ATOM    217  C4'  DA D  13      36.524  32.679  21.854  1.00 25.33     0.175 C 
ATOM    218  O4'  DA D  13      35.206  32.439  22.406  1.00 22.92    -0.333 OA
ATOM    219  C1'  DA D  13      35.130  31.138  22.995  1.00 20.98     0.210 C 
ATOM    220  C2'  DA D  13      36.313  30.348  22.417  1.00 23.30     0.087 C 
ATOM    221  C3'  DA D  13      37.355  31.434  22.192  1.00 26.45     0.161 C 
BRANCH 219 222
ATOM    222  N9   DA D  13      33.819  30.605  22.650  1.00 17.31    -0.272 N 
ATOM    223  C8   DA D  13      33.027  30.995  21.627  1.00 17.58     0.182 A 
ATOM    224  N7   DA D  13      31.846  30.436  21.618  1.00 17.72    -0.219 NA
ATOM    225  C5   DA D  13      31.874  29.580  22.688  1.00 14.33     0.155 A 
ATOM    226  C6   DA D  13      30.939  28.678  23.221  1.00 14.45     0.206 A 
ATOM    227  C4   DA D  13      33.100  29.660  23.340  1.00 15.76     0.170 A 
ATOM    228  N6   DA D  13      29.676  28.498  22.739  1.00 15.52    -0.125 N 
ATOM    229  N1   DA D  13      31.324  27.965  24.278  1.00 14.59    -0.202 NA
ATOM    230  C2   DA D  13      32.538  28.159  24.810  1.00 15.74     0.202 A 
ATOM    231  N3   DA D  13      33.490  28.995  24.425  1.00 15.60    -0.205 NA
ENDBRANCH 219 222
BRANCH 221 232
ATOM    232  O3'  DA D  13      38.059  31.676  23.393  1.00 30.43    -0.271 OA
BRANCH 232 233
ATOM    233  P    DA D  14      39.389  30.850  23.691  1.00 32.07     0.410 P 
ATOM    234  OP2  DA D  14      39.032  29.632  24.403  1.00 33.16    -0.624 OA
ATOM    235  OP1  DA D  14      40.116  30.784  22.395  1.00 33.96    -0.624 OA
BRANCH 233 236
ATOM    236  O5'  DA D  14      40.187  31.826  24.627  1.00 31.87    -0.268 OA
BRANCH 236 237
ATOM    237  C5'  DA D  14      39.549  33.008  25.081  1.00 30.81     0.187 C 
BRANCH 237 238
ATOM    238  C4'  DA D  14      39.728  33.126  26.571  1.00 31.39     0.175 C 
ATOM    239  O4'  DA D  14      39.083  34.333  27.052  1.00 30.66    -0.333 OA
ATOM    240  C1'  DA D  14      38.215  33.978  28.112  1.00 28.20     0.210 C 
ATOM    241  C2'  DA D  14      37.764  32.564  27.804  1.00 29.16     0.087 C 
ATOM    242  C3'  DA D  14      39.083  31.977  27.340  1.00 31.09     0.161 C 
BRANCH 240 243
ATOM    243  N9   DA D  14      37.170  34.977  28.201  1.00 24.41    -0.272 N 
ATOM    244  C4   DA D  14      36.544  35.270  29.380  1.00 21.62     0.170 A 
ATOM    245  N3   DA D  14      36.830  34.748  30.594  1.00 18.94    -0.205 NA
ATOM    246  C5   DA D  14      35.553  36.158  29.059  1.00 22.12     0.155 A 
ATOM    247  C2   DA D  14      35.951  35.203  31.511  1.00 18.83     0.202 A 
ATOM    248  N1   DA D  14      34.967  36.059  31.332  1.00 18.79    -0.202 NA
ATOM    249  C6   DA D  14      34.747  36.579  30.090  1.00 19.52     0.206 A 
ATOM    250  N6   DA D  14      33.791  37.468  29.913  1.00 21.07    -0.125 N 
ATOM    251  N7   DA D  14      35.566  36.457  27.697  1.00 24.53    -0.219 NA
ATOM    252  C8   DA D  14      36.568  35.745  27.241  1.00 24.70     0.182 A 
ENDBRANCH 240 243
BRANCH 242 253
ATOM    253  O3'  DA D  14      39.928  31.737  28.444  1.00 31.14    -0.271 OA
BRANCH 253 254
ATOM    254  P    DC D  15      41.052  30.592  28.372  1.00 30.59     0.410 P 
ATOM    255  OP1  DC D  15      42.281  31.194  28.964  1.00 31.75    -0.624 OA
ATOM    256  OP2  DC D  15      41.106  29.923  27.036  1.00 29.87    -0.624 OA
BRANCH 254 257
ATOM    257  O5'  DC D  15      40.453  29.584  29.463  1.00 30.76    -0.268 OA
BRANCH 257 258
ATOM    258  C5'  DC D  15      39.177  28.931  29.221  1.00 28.28     0.187 C 
BRANCH 258 259
ATOM    259  C4'  DC D  15      38.279  29.007  30.442  1.00 28.15     0.175 C 
ATOM    260  O4'  DC D  15      38.996  29.490  31.601  1.00 23.18    -0.333 OA
ATOM    261  C1'  DC D  15      38.363  30.649  32.144  1.00 22.58     0.211 C 
ATOM    262  C2'  DC D  15      37.414  31.155  31.070  1.00 24.52     0.087 C 
ATOM    263  C3'  DC D  15      37.048  29.893  30.313  1.00 28.37     0.161 C 
BRANCH 261 264
ATOM    264  N1   DC D  15      39.417  31.621  32.444  1.00 18.64    -0.256 N 
ATOM    265  C6   DC D  15      39.631  32.693  31.619  1.00 16.47     0.085 A 
ATOM    266  C5   DC D  15      40.635  33.539  31.830  1.00 15.01     0.060 A 
ATOM    267  C4   DC D  15      41.497  33.266  32.957  1.00 13.33     0.190 A 
ATOM    268  N3   DC D  15      41.239  32.273  33.804  1.00 13.89    -0.171 NA
ATOM    269  N4   DC D  15      42.578  33.998  33.148  1.00 15.28    -0.127 N 
ATOM    270  C2   DC D  15      40.229  31.429  33.582  1.00 18.12     0.353 A 
ATOM    271  O2   DC D  15      39.983  30.457  34.332  1.00 20.47    -0.244 OA
ENDBRANCH 261 264
BRANCH 263 272
ATOM    272  O3'  DC D  15      35.940  29.278  30.954  1.00 31.34    -0.271 OA
BRANCH 272 273
ATOM    273  P    DG D  16      34.860  28.525  30.069  1.00 32.78     0.410 P 
ATOM    274  OP1  DG D  16      33.583  28.523  30.840  1.00 34.59    -0.624 OA
ATOM    275  OP2  DG D  16      35.471  27.242  29.640  1.00 31.45    -0.624 OA
BRANCH 273 276
ATOM    276  O5'  DG D  16      34.726  29.460  28.797  1.00 31.83    -0.268 OA
BRANCH 276 277
ATOM    277  C5'  DG D  16      33.476  29.631  28.150  1.00 31.48     0.187 C 
BRANCH 277 278
ATOM    278  C4'  DG D  16      33.097  31.090  28.169  1.00 29.56     0.178 C 
ATOM    279  C3'  DG D  16      34.264  32.052  28.427  1.00 29.50     0.186 C 
ATOM    280  C2'  DG D  16      34.076  32.425  29.891  1.00 28.21     0.090 C 
ATOM    281  O3'  DG D  16      34.061  33.247  27.640  1.00 31.52    -0.221 OA
ATOM    282  C1'  DG D  16      32.572  32.469  29.957  1.00 24.75     0.210 C 
ATOM    283  O4'  DG D  16      32.151  31.336  29.231  1.00 27.49    -0.333 OA
BRANCH 282 284
ATOM    284  N9   DG D  16      31.995  32.380  31.286  1.00 21.33    -0.271 N 
ATOM    285  C4   DG D  16      31.681  33.439  32.088  1.00 19.88     0.188 A 
ATOM    286  N3   DG D  16      31.818  34.754  31.762  1.00 18.33    -0.038 NA
ATOM    287  C5   DG D  16      31.218  32.884  33.259  1.00 17.85     0.176 A 
ATOM    288  C2   DG D  16      31.451  35.543  32.730  1.00 15.82     0.773 A 
ATOM    289  N1   DG D  16      30.996  35.079  33.958  1.00 16.33    -0.016 NA
ATOM    290  N2   DG D  16      31.486  36.903  32.559  1.00 16.23     0.062 N 
ATOM    291  C6   DG D  16      30.841  33.742  34.310  1.00 15.94     0.316 A 
ATOM    292  O6   DG D  16      30.414  33.459  35.463  1.00 18.70    -0.263 OA
ATOM    293  N7   DG D  16      31.194  31.497  33.165  1.00 18.48    -0.217 NA
ATOM    294  C8   DG D  16      31.676  31.245  31.981  1.00 19.50     0.182 A 
ENDBRANCH 282 284
ENDBRANCH 277 278
ENDBRANCH 276 277
ENDBRANCH 273 276
ENDBRANCH 272 273
ENDBRANCH 263 272
ENDBRANCH 258 259
ENDBRANCH 257 258
ENDBRANCH 254 257
ENDBRANCH 253 254
ENDBRANCH 242 253
ENDBRANCH 237 238
ENDBRANCH 236 237
ENDBRANCH 233 236
ENDBRANCH 232 233
ENDBRANCH 221 232
ENDBRANCH 216 217
ENDBRANCH 215 216
ENDBRANCH 212 215
ENDBRANCH 211 212
ENDBRANCH 207 211
BRANCH 209 295
ATOM    295  N1   DT D  12      37.916  35.022  14.340  1.00 25.54    -0.256 N 
ATOM    296  C6   DT D  12      37.166  35.079  13.183  1.00 22.97     0.083 A 
ATOM    297  C5   DT D  12      37.703  35.204  11.953  1.00 22.23     0.053 A 
ATOM    298  C4   DT D  12      39.133  35.289  11.849  1.00 20.03     0.280 A 
ATOM    299  C7   DT D  12      36.905  35.272  10.692  1.00 23.27     0.038 C 
ATOM    300  O4   DT D  12      39.720  35.376  10.774  1.00 18.53    -0.265 OA
ATOM    301  N3   DT D  12      39.832  35.264  13.057  1.00 19.51    -0.153 NA
ATOM    302  C2   DT D  12      39.299  35.132  14.310  1.00 22.25     0.354 A 
ATOM    303  O2   DT D  12      39.985  35.106  15.326  1.00 24.24    -0.244 OA
ENDBRANCH 209 295
ENDBRANCH 205 206
ENDBRANCH 204 205
ENDBRANCH 201 204
ENDBRANCH 200 201
ENDBRANCH 196 200
BRANCH 198 304
ATOM    304  N9   DG D  11      38.975  28.307  19.859  1.00 15.12    -0.271 N 
ATOM    305  C8   DG D  11      40.283  28.589  19.542  1.00 13.13     0.182 A 
ATOM    306  N7   DG D  11      41.132  28.138  20.427  1.00 13.46    -0.217 NA
ATOM    307  C5   DG D  11      40.336  27.518  21.384  1.00 11.37     0.176 A 
ATOM    308  C6   DG D  11      40.713  26.829  22.549  1.00 10.16     0.316 A 
ATOM    309  C4   DG D  11      39.003  27.637  21.072  1.00 12.33     0.188 A 
ATOM    310  O6   DG D  11      41.836  26.574  22.929  1.00 10.86    -0.263 OA
ATOM    311  N1   DG D  11      39.591  26.402  23.275  1.00 10.07    -0.016 NA
ATOM    312  C2   DG D  11      38.268  26.592  22.883  1.00 11.41     0.773 A 
ATOM    313  N2   DG D  11      37.285  26.149  23.723  1.00 10.83     0.062 N 
ATOM    314  N3   DG D  11      37.926  27.189  21.756  1.00 11.83    -0.038 NA
ENDBRANCH 198 304
ENDBRANCH 194 195
ENDBRANCH 193 194
ENDBRANCH 190 193
ENDBRANCH 189 190
ENDBRANCH 185 189
BRANCH 187 315
ATOM    315  N9   DG D  10      44.828  31.916  14.838  1.00 11.23    -0.271 N 
ATOM    316  C8   DG D  10      45.629  32.789  14.126  1.00 12.20     0.182 A 
ATOM    317  N7   DG D  10      46.763  33.052  14.741  1.00 12.66    -0.217 NA
ATOM    318  C5   DG D  10      46.709  32.281  15.897  1.00 10.47     0.176 A 
ATOM    319  C4   DG D  10      45.530  31.574  15.966  1.00 10.52     0.188 A 
ATOM    320  C6   DG D  10      47.666  32.118  16.971  1.00 11.39     0.316 A 
ATOM    321  N3   DG D  10      45.124  30.719  16.924  1.00 10.98    -0.038 NA
ATOM    322  C2   DG D  10      45.997  30.627  17.921  1.00  8.78     0.773 A 
ATOM    323  N1   DG D  10      47.204  31.273  17.951  1.00  9.45    -0.016 NA
ATOM    324  N2   DG D  10      45.721  29.887  18.989  1.00 10.60     0.062 N 
ATOM    325  O6   DG D  10      48.810  32.617  17.091  1.00 10.46    -0.263 OA
ENDBRANCH 187 315
ENDBRANCH 183 184
ENDBRANCH 182 183
ENDBRANCH 179 182
ENDBRANCH 178 179
ENDBRANCH 168 178
ENDBRANCH   1 164
TORSDOF 92
ENDMDL
MODEL 8
REMARK VINA RESULT:      -0.1      3.411     11.570
REMARK WARNING: 32 MAX_TORS EXCEEDED!!!
REMARK  92 active torsions:
REMARK  status: ('A' for Active; 'I' for Inactive)
REMARK    1  A    between atoms: C5'_1  and  C4'_3 
REMARK    2  A    between atoms: C3'_5  and  O3'_6 
REMARK    3  A    between atoms: O3'_6  and  P_17 
REMARK    4  A    between atoms: C1'_8  and  N1_9 
REMARK    5  A    between atoms: P_17  and  O5'_19 
REMARK    6  A    between atoms: C5'_18  and  O5'_19 
REMARK    7  A    between atoms: C5'_18  and  C4'_20 
REMARK    8  A    between atoms: C3'_22  and  O3'_23 
REMARK    9  A    between atoms: O3'_23  and  P_39 
REMARK   10  A    between atoms: C1'_25  and  N9_36 
REMARK   11  A    between atoms: P_39  and  O5'_41 
REMARK   12  A    between atoms: C5'_40  and  O5'_41 
REMARK   13  A    between atoms: C5'_40  and  C4'_42 
REMARK   14  A    between atoms: C3'_44  and  O3'_45 
REMARK   15  A    between atoms: O3'_45  and  P_59 
REMARK   16  A    between atoms: C1'_47  and  N1_48 
REMARK   17  A    between atoms: P_59  and  O5'_61 
REMARK   18  A    between atoms: C5'_60  and  C4'_62 
REMARK   19  A    between atoms: C5'_60  and  O5'_61 
REMARK   20  A    between atoms: C3'_64  and  O3'_65 
REMARK   21  A    between atoms: O3'_65  and  P_79 
REMARK   22  A    between atoms: C1'_67  and  N1_68 
REMARK   23  A    between atoms: P_79  and  O5'_81 
REMARK   24  A    between atoms: C5'_80  and  C4'_82 
REMARK   25  A    between atoms: C5'_80  and  O5'_81 
REMARK   26  A    between atoms: C3'_84  and  O3'_85 
REMARK   27  A    between atoms: O3'_85  and  P_100 
REMARK   28  A    between atoms: C1'_87  and  N9_97 
REMARK   29  A    between atoms: P_100  and  O5'_102 
REMARK   30  A    between atoms: C5'_101  and  C4'_103 
REMARK   31  A    between atoms: C5'_101  and  O5'_102 
REMARK   32  A    between atoms: C3'_105  and  O3'_106 
REMARK   33  A    between atoms: O3'_106  and  P_119 
REMARK   34  A    between atoms: C1'_108  and  N1_109 
REMARK   35  A    between atoms: P_119  and  O5'_121 
REMARK   36  A    between atoms: C5'_120  and  O5'_121 
REMARK   37  A    between atoms: C5'_120  and  C4'_122 
REMARK   38  A    between atoms: C3'_124  and  O3'_125 
REMARK   39  A    between atoms: O3'_125  and  P_138 
REMARK   40  A    between atoms: C1'_127  and  N1_128 
REMARK   41  A    between atoms: P_138  and  O5'_140 
REMARK   42  A    between atoms: C5'_139  and  C4'_141 
REMARK   43  A    between atoms: C5'_139  and  O5'_140 
REMARK   44  A    between atoms: C3'_143  and  O3'_144 
REMARK   45  A    between atoms: O3'_144  and  P_159 
REMARK   46  A    between atoms: C1'_146  and  N9_156 
REMARK   47  A    between atoms: P_159  and  O5'_161 
REMARK   48  A    between atoms: C5'_160  and  O5'_161 
REMARK   49  A    between atoms: C5'_160  and  C4'_162 
REMARK   50  A    between atoms: C3'_164  and  O3'_165 
REMARK   51  A    between atoms: O3'_165  and  P_179 
REMARK   52  A    between atoms: C1'_167  and  N1_168 
REMARK   53  A    between atoms: P_179  and  O5'_181 
REMARK   54  A    between atoms: C5'_180  and  C4'_182 
REMARK   55  A    between atoms: C5'_180  and  O5'_181 
REMARK   56  A    between atoms: C3'_184  and  O3'_185 
REMARK   57  A    between atoms: O3'_185  and  P_201 
REMARK   58  A    between atoms: C1'_187  and  N9_198 
REMARK   59  A    between atoms: P_201  and  O5'_203 
REMARK   60  A    between atoms: C5'_202  and  O5'_203 
REMARK   61  A    between atoms: C5'_202  and  C4'_204 
REMARK   62  A    between atoms: C3'_206  and  O3'_207 
REMARK   63  A    between atoms: O3'_207  and  P_223 
REMARK   64  A    between atoms: C1'_209  and  N9_220 
REMARK   65  A    between atoms: P_223  and  O5'_225 
REMARK   66  A    between atoms: C5'_224  and  O5'_225 
REMARK   67  A    between atoms: C5'_224  and  C4'_226 
REMARK   68  A    between atoms: C3'_228  and  O3'_229 
REMARK   69  A    between atoms: O3'_229  and  P_243 
REMARK   70  A    between atoms: C1'_231  and  N1_232 
REMARK   71  A    between atoms: P_243  and  O5'_245 
REMARK   72  A    between atoms: C5'_244  and  C4'_246 
REMARK   73  A    between atoms: C5'_244  and  O5'_245 
REMARK   74  A    between atoms: C3'_248  and  O3'_249 
REMARK   75  A    between atoms: O3'_249  and  P_264 
REMARK   76  A    between atoms: C1'_251  and  N9_261 
REMARK   77  A    between atoms: P_264  and  O5'_266 
REMARK   78  A    between atoms: C5'_265  and  C4'_267 
REMARK   79  A    between atoms: C5'_265  and  O5'_266 
REMARK   80  A    between atoms: C3'_269  and  O3'_270 
REMARK   81  A    between atoms: O3'_270  and  P_285 
REMARK   82  A    between atoms: C1'_272  and  N9_282 
REMARK   83  A    between atoms: P_285  and  O5'_287 
REMARK   84  A    between atoms: C5'_286  and  O5'_287 
REMARK   85  A    between atoms: C5'_286  and  C4'_288 
REMARK   86  A    between atoms: C3'_290  and  O3'_291 
REMARK   87  A    between atoms: O3'_291  and  P_304 
REMARK   88  A    between atoms: C1'_293  and  N1_294 
REMARK   89  A    between atoms: P_304  and  O5'_306 
REMARK   90  A    between atoms: C5'_305  and  C4'_307 
REMARK   91  A    between atoms: C5'_305  and  O5'_306 
REMARK   92  A    between atoms: C1'_312  and  N9_323 
ROOT
HETATM    1  C5' BRU D   9      34.576  41.496  13.084  1.00 14.48     0.187 C 
ENDROOT
BRANCH   1   2
HETATM    2  O5' BRU D   9      35.207  41.372  14.344  1.00 12.82    -0.268 OA
BRANCH   2   3
HETATM    3  P   BRU D   9      34.694  42.214  15.581  1.00 11.11     0.410 P 
HETATM    4  OP1 BRU D   9      33.824  43.352  15.106  1.00 14.53    -0.624 OA
HETATM    5  OP2 BRU D   9      34.131  41.198  16.510  1.00 12.75    -0.624 OA
BRANCH   3   6
ATOM      6  O3'  DA D   8      36.007  42.935  16.096  1.00 11.43    -0.271 OA
BRANCH   6   7
ATOM      7  C3'  DA D   8      36.156  43.174  17.482  1.00 10.57     0.161 C 
ATOM      8  C4'  DA D   8      36.666  41.903  18.155  1.00 11.52     0.175 C 
ATOM      9  O4'  DA D   8      36.152  41.949  19.497  1.00 11.40    -0.333 OA
ATOM     10  C1'  DA D   8      35.006  42.816  19.557  1.00 11.23     0.210 C 
ATOM     11  C2'  DA D   8      34.813  43.398  18.158  1.00 12.23     0.087 C 
BRANCH   8  12
ATOM     12  C5'  DA D   8      38.164  41.744  18.211  1.00 13.06     0.187 C 
BRANCH  12  13
ATOM     13  O5'  DA D   8      38.506  40.398  18.430  1.00 11.03    -0.268 OA
BRANCH  13  14
ATOM     14  P    DA D   8      39.221  39.981  19.814  1.00 12.25     0.410 P 
ATOM     15  OP2  DA D   8      40.088  38.791  19.495  1.00 11.74    -0.624 OA
ATOM     16  OP1  DA D   8      38.216  39.874  20.882  1.00 15.55    -0.624 OA
BRANCH  14  17
ATOM     17  O3'  DC D   7      40.160  41.226  20.179  1.00 12.10    -0.271 OA
BRANCH  17  18
ATOM     18  C3'  DC D   7      41.587  41.099  20.015  1.00 11.74     0.161 C 
ATOM     19  C2'  DC D   7      42.156  41.997  18.918  1.00 11.76     0.087 C 
ATOM     20  C1'  DC D   7      43.597  42.232  19.384  1.00 12.42     0.211 C 
ATOM     21  O4'  DC D   7      43.593  42.036  20.794  1.00 12.34    -0.333 OA
ATOM     22  C4'  DC D   7      42.269  41.646  21.251  1.00 11.56     0.175 C 
BRANCH  20  23
ATOM     23  N1   DC D   7      44.455  41.170  18.808  1.00 11.09    -0.256 N 
ATOM     24  C2   DC D   7      45.769  41.518  18.487  1.00  9.80     0.353 A 
ATOM     25  O2   DC D   7      46.088  42.708  18.663  1.00 10.91    -0.244 OA
ATOM     26  N3   DC D   7      46.633  40.597  17.996  1.00  9.76    -0.171 NA
ATOM     27  C4   DC D   7      46.218  39.362  17.765  1.00 11.68     0.190 A 
ATOM     28  N4   DC D   7      47.109  38.460  17.262  1.00 10.83    -0.127 N 
ATOM     29  C5   DC D   7      44.853  38.961  18.054  1.00 10.32     0.060 A 
ATOM     30  C6   DC D   7      44.014  39.898  18.573  1.00 11.95     0.085 A 
ENDBRANCH  20  23
BRANCH  22  31
ATOM     31  C5'  DC D   7      42.399  40.676  22.392  1.00 14.18     0.187 C 
BRANCH  31  32
ATOM     32  O5'  DC D   7      43.717  40.801  22.944  1.00 16.43    -0.268 OA
BRANCH  32  33
ATOM     33  P    DC D   7      43.921  40.629  24.509  1.00 18.54     0.410 P 
ATOM     34  OP1  DC D   7      45.112  41.380  24.876  1.00 22.71    -0.624 OA
ATOM     35  OP2  DC D   7      42.624  40.888  25.129  1.00 19.79    -0.624 OA
BRANCH  33  36
ATOM     36  O3'  DC D   6      44.391  39.089  24.621  1.00 17.13    -0.271 OA
BRANCH  36  37
ATOM     37  C3'  DC D   6      45.205  38.515  23.623  1.00 14.94     0.161 C 
ATOM     38  C4'  DC D   6      44.405  37.389  22.980  1.00 15.77     0.175 C 
ATOM     39  O4'  DC D   6      44.812  36.199  23.679  1.00 13.81    -0.333 OA
ATOM     40  C1'  DC D   6      45.629  36.559  24.757  1.00 12.86     0.211 C 
ATOM     41  C2'  DC D   6      46.359  37.793  24.295  1.00 14.65     0.087 C 
BRANCH  38  42
ATOM     42  C5'  DC D   6      44.670  37.242  21.502  1.00 18.13     0.187 C 
BRANCH  42  43
ATOM     43  O5'  DC D   6      44.601  35.866  21.142  1.00 19.27    -0.268 OA
BRANCH  43  44
ATOM     44  P    DC D   6      45.506  35.294  19.948  1.00 19.84     0.410 P 
ATOM     45  OP1  DC D   6      46.618  36.271  19.814  1.00 24.35    -0.624 OA
ATOM     46  OP2  DC D   6      45.801  33.891  20.232  1.00 20.92    -0.624 OA
BRANCH  44  47
ATOM     47  O3'  DA D   5      44.547  35.485  18.691  1.00 19.93    -0.271 OA
BRANCH  47  48
ATOM     48  C3'  DA D   5      43.191  35.046  18.746  1.00 16.89     0.161 C 
ATOM     49  C4'  DA D   5      42.969  34.219  17.483  1.00 17.32     0.175 C 
ATOM     50  O4'  DA D   5      42.457  35.136  16.510  1.00 18.24    -0.333 OA
ATOM     51  C1'  DA D   5      42.222  36.420  17.115  1.00 15.77     0.210 C 
ATOM     52  C2'  DA D   5      42.194  36.196  18.613  1.00 16.34     0.087 C 
BRANCH  49  53
ATOM     53  C5'  DA D   5      42.094  32.998  17.655  1.00 17.61     0.187 C 
BRANCH  53  54
ATOM     54  O5'  DA D   5      42.121  32.579  19.017  1.00 19.33    -0.268 OA
BRANCH  54  55
ATOM     55  P    DA D   5      42.736  31.174  19.397  1.00 20.74     0.410 P 
ATOM     56  OP2  DA D   5      43.705  30.718  18.373  1.00 23.47    -0.624 OA
ATOM     57  OP1  DA D   5      41.585  30.299  19.794  1.00 23.99    -0.624 OA
BRANCH  55  58
ATOM     58  O3'  DT D   4      43.480  31.487  20.796  1.00 19.59    -0.271 OA
BRANCH  58  59
ATOM     59  C3'  DT D   4      42.733  31.774  21.997  1.00 18.10     0.161 C 
ATOM     60  C4'  DT D   4      43.218  33.124  22.551  1.00 15.82     0.175 C 
ATOM     61  O4'  DT D   4      44.077  32.822  23.666  1.00 16.38    -0.333 OA
ATOM     62  C1'  DT D   4      44.298  31.420  23.784  1.00 15.63     0.211 C 
ATOM     63  C2'  DT D   4      43.066  30.786  23.116  1.00 16.56     0.087 C 
BRANCH  60  64
ATOM     64  C5'  DT D   4      42.148  34.073  23.048  1.00 17.08     0.187 C 
BRANCH  64  65
ATOM     65  O5'  DT D   4      40.844  33.601  22.650  1.00 15.07    -0.268 OA
BRANCH  65  66
ATOM     66  P    DT D   4      39.773  33.197  23.762  1.00 15.11     0.410 P 
ATOM     67  OP1  DT D   4      40.510  32.682  24.983  1.00 18.00    -0.624 OA
ATOM     68  OP2  DT D   4      38.867  34.377  23.889  1.00 17.03    -0.624 OA
BRANCH  66  69
HETATM   69  O3' BRU D   3      39.087  31.940  23.135  1.00 15.24    -0.271 OA
BRANCH  69  70
HETATM   70  C3' BRU D   3      38.219  31.097  23.901  1.00 13.22     0.161 C 
HETATM   71  C4' BRU D   3      38.941  29.749  23.925  1.00 14.89     0.175 C 
HETATM   72  O4' BRU D   3      37.967  28.754  23.554  1.00 16.05    -0.333 OA
HETATM   73  C1' BRU D   3      37.054  29.385  22.662  1.00 15.34     0.211 C 
HETATM   74  C2' BRU D   3      36.849  30.774  23.286  1.00 12.90     0.087 C 
BRANCH  71  75
HETATM   75  C5' BRU D   3      39.694  29.349  25.166  1.00 17.61     0.187 C 
BRANCH  75  76
HETATM   76  O5' BRU D   3      39.128  29.932  26.324  1.00 15.66    -0.268 OA
BRANCH  76  77
HETATM   77  P   BRU D   3      38.084  29.053  27.157  1.00 16.77     0.410 P 
HETATM   78  OP1 BRU D   3      36.728  29.539  26.774  1.00 18.57    -0.624 OA
HETATM   79  OP2 BRU D   3      38.443  27.614  27.023  1.00 18.18    -0.624 OA
BRANCH  77  80
ATOM     80  O3'  DG D   2      38.319  29.482  28.672  1.00 17.32    -0.271 OA
BRANCH  80  81
ATOM     81  C3'  DG D   2      39.627  29.565  29.215  1.00 15.47     0.161 C 
ATOM     82  C2'  DG D   2      39.768  30.855  30.036  1.00 16.87     0.087 C 
ATOM     83  C1'  DG D   2      39.027  30.497  31.323  1.00 16.11     0.210 C 
ATOM     84  O4'  DG D   2      39.227  29.089  31.502  1.00 18.37    -0.333 OA
ATOM     85  C4'  DG D   2      39.669  28.465  30.277  1.00 18.34     0.175 C 
BRANCH  83  86
ATOM     86  N9   DG D   2      39.524  31.145  32.537  1.00 16.03    -0.272 N 
ATOM     87  C8   DG D   2      38.808  31.877  33.453  1.00 14.57     0.182 A 
ATOM     88  N7   DG D   2      39.554  32.417  34.388  1.00 16.34    -0.217 NA
ATOM     89  C5   DG D   2      40.856  32.000  34.061  1.00 13.99     0.175 A 
ATOM     90  C6   DG D   2      42.101  32.290  34.695  1.00 12.33     0.302 A 
ATOM     91  C4   DG D   2      40.844  31.184  32.943  1.00 12.94     0.172 A 
ATOM     92  O6   DG D   2      42.285  32.994  35.671  1.00 15.71    -0.263 OA
ATOM     93  N1   DG D   2      43.163  31.682  34.062  1.00 12.85    -0.174 NA
ATOM     94  C2   DG D   2      43.065  30.867  32.950  1.00 12.30     0.242 A 
ATOM     95  N2   DG D   2      44.240  30.313  32.465  1.00 15.13    -0.059 NA
ATOM     96  N3   DG D   2      41.889  30.578  32.336  1.00 14.89    -0.195 NA
ENDBRANCH  83  86
BRANCH  85  97
ATOM     97  C5'  DG D   2      41.007  27.797  30.480  1.00 20.11     0.187 C 
BRANCH  97  98
ATOM     98  O5'  DG D   2      41.129  27.308  31.812  1.00 21.44    -0.268 OA
BRANCH  98  99
ATOM     99  P    DG D   2      42.486  26.669  32.320  1.00 23.19     0.410 P 
ATOM    100  OP1  DG D   2      42.761  27.360  33.612  1.00 25.33    -0.624 OA
ATOM    101  OP2  DG D   2      42.497  25.199  32.253  1.00 23.21    -0.624 OA
BRANCH  99 102
ATOM    102  O3'  DC D   1      43.596  27.163  31.277  1.00 26.59    -0.271 OA
BRANCH 102 103
ATOM    103  C3'  DC D   1      44.372  26.185  30.599  1.00 27.88     0.161 C 
ATOM    104  C2'  DC D   1      43.739  25.951  29.242  1.00 26.06     0.087 C 
ATOM    105  C1'  DC D   1      44.201  27.192  28.513  1.00 24.51     0.211 C 
ATOM    106  O4'  DC D   1      45.543  27.425  28.968  1.00 29.50    -0.333 OA
ATOM    107  C4'  DC D   1      45.715  26.821  30.260  1.00 29.48     0.178 C 
BRANCH 105 108
ATOM    108  N1   DC D   1      44.251  27.150  27.046  1.00 21.38    -0.256 N 
ATOM    109  C6   DC D   1      45.297  26.570  26.380  1.00 19.62     0.085 A 
ATOM    110  C5   DC D   1      45.371  26.621  25.035  1.00 19.43     0.060 A 
ATOM    111  C4   DC D   1      44.294  27.261  24.346  1.00 17.00     0.190 A 
ATOM    112  N4   DC D   1      44.288  27.332  23.014  1.00 18.52    -0.127 N 
ATOM    113  N3   DC D   1      43.254  27.802  25.001  1.00 17.32    -0.171 NA
ATOM    114  C2   DC D   1      43.221  27.763  26.341  1.00 18.49     0.353 A 
ATOM    115  O2   DC D   1      42.286  28.271  26.969  1.00 18.51    -0.244 OA
ENDBRANCH 105 108
BRANCH 107 116
ATOM    116  C5'  DC D   1      46.899  25.881  30.251  1.00 31.78     0.214 C 
ATOM    117  O5'  DC D   1      46.908  25.077  31.434  1.00 34.90    -0.218 OA
ENDBRANCH 107 116
ENDBRANCH 102 103
ENDBRANCH  99 102
ENDBRANCH  98  99
ENDBRANCH  97  98
ENDBRANCH  85  97
ENDBRANCH  80  81
ENDBRANCH  77  80
ENDBRANCH  76  77
ENDBRANCH  75  76
ENDBRANCH  71  75
BRANCH  73 118
HETATM  118  N1  BRU D   3      35.838  28.568  22.618  1.00 13.25    -0.255 N 
HETATM  119  C2  BRU D   3      34.949  28.675  21.525  1.00 11.90     0.354 A 
HETATM  120  O2  BRU D   3      35.123  29.452  20.606  1.00 16.11    -0.244 OA
HETATM  121  N3  BRU D   3      33.869  27.849  21.560  1.00 12.15    -0.153 NA
HETATM  122  C4  BRU D   3      33.596  26.943  22.507  1.00 12.48     0.291 A 
HETATM  123  O4  BRU D   3      32.562  26.245  22.492  1.00 16.38    -0.264 OA
HETATM  124  C5  BRU D   3      34.550  26.948  23.561  1.00 14.67     0.110 A 
HETATM  125  C6  BRU D   3      35.589  27.732  23.579  1.00 13.17     0.094 A 
HETATM  126 BR   BRU D   3      34.216  25.648  25.183  1.00 24.07    -0.043 Br
ENDBRANCH  73 118
ENDBRANCH  69  70
ENDBRANCH  66  69
ENDBRANCH  65  66
ENDBRANCH  64  65
ENDBRANCH  60  64
BRANCH  62 127
ATOM    127  N1   DT D   4      44.528  31.153  25.233  1.00 13.98    -0.256 N 
ATOM    128  C2   DT D   4      45.641  30.450  25.598  1.00 13.56     0.354 A 
ATOM    129  O2   DT D   4      46.412  29.994  24.755  1.00 16.57    -0.244 OA
ATOM    130  N3   DT D   4      45.852  30.305  26.964  1.00 12.35    -0.153 NA
ATOM    131  C4   DT D   4      45.039  30.815  27.971  1.00 11.46     0.280 A 
ATOM    132  O4   DT D   4      45.338  30.684  29.169  1.00 13.76    -0.265 OA
ATOM    133  C5   DT D   4      43.846  31.490  27.496  1.00 12.51     0.053 A 
ATOM    134  C7   DT D   4      42.866  32.004  28.498  1.00 14.43     0.038 C 
ATOM    135  C6   DT D   4      43.653  31.637  26.184  1.00 14.14     0.083 A 
ENDBRANCH  62 127
ENDBRANCH  58  59
ENDBRANCH  55  58
ENDBRANCH  54  55
ENDBRANCH  53  54
ENDBRANCH  49  53
BRANCH  51 136
ATOM    136  N9   DA D   5      40.954  36.882  16.534  1.00 14.16    -0.272 N 
ATOM    137  C4   DA D   5      40.683  38.169  16.126  1.00 14.21     0.170 A 
ATOM    138  C5   DA D   5      39.471  38.094  15.455  1.00 12.40     0.155 A 
ATOM    139  N3   DA D   5      41.424  39.269  16.308  1.00 13.46    -0.205 NA
ATOM    140  C6   DA D   5      38.953  39.273  14.921  1.00 12.04     0.206 A 
ATOM    141  N7   DA D   5      38.993  36.810  15.475  1.00 14.47    -0.219 NA
ATOM    142  N6   DA D   5      37.781  39.309  14.257  1.00 12.46    -0.125 N 
ATOM    143  N1   DA D   5      39.667  40.411  15.085  1.00 13.98    -0.202 NA
ATOM    144  C2   DA D   5      40.839  40.331  15.746  1.00 14.25     0.202 A 
ATOM    145  C8   DA D   5      39.888  36.133  16.160  1.00 14.09     0.182 A 
ENDBRANCH  51 136
ENDBRANCH  47  48
ENDBRANCH  44  47
ENDBRANCH  43  44
ENDBRANCH  42  43
ENDBRANCH  38  42
BRANCH  40 146
ATOM    146  N1   DC D   6      46.457  35.380  25.143  1.00 11.89    -0.256 N 
ATOM    147  C2   DC D   6      46.015  34.606  26.230  1.00 11.45     0.353 A 
ATOM    148  O2   DC D   6      44.929  34.861  26.705  1.00 12.57    -0.244 OA
ATOM    149  N3   DC D   6      46.800  33.604  26.708  1.00 11.17    -0.171 NA
ATOM    150  C4   DC D   6      47.958  33.332  26.116  1.00 11.08     0.190 A 
ATOM    151  N4   DC D   6      48.734  32.352  26.610  1.00 10.70    -0.127 N 
ATOM    152  C5   DC D   6      48.403  34.074  24.959  1.00 10.83     0.060 A 
ATOM    153  C6   DC D   6      47.622  35.078  24.521  1.00 11.79     0.085 A 
ENDBRANCH  40 146
ENDBRANCH  36  37
ENDBRANCH  33  36
ENDBRANCH  32  33
ENDBRANCH  31  32
ENDBRANCH  22  31
ENDBRANCH  17  18
ENDBRANCH  14  17
ENDBRANCH  13  14
ENDBRANCH  12  13
ENDBRANCH   8  12
BRANCH  10 154
ATOM    154  N9   DA D   8      35.333  43.891  20.494  1.00 10.83    -0.272 N 
ATOM    155  C4   DA D   8      36.034  43.702  21.658  1.00  9.99     0.170 A 
ATOM    156  N3   DA D   8      36.520  42.527  22.144  1.00 10.21    -0.205 NA
ATOM    157  C5   DA D   8      36.182  44.954  22.211  1.00 10.31     0.155 A 
ATOM    158  C2   DA D   8      37.177  42.718  23.261  1.00 10.39     0.202 A 
ATOM    159  N1   DA D   8      37.393  43.876  23.924  1.00 11.14    -0.202 NA
ATOM    160  C6   DA D   8      36.934  45.032  23.392  1.00 10.09     0.206 A 
ATOM    161  N6   DA D   8      37.261  46.163  24.001  1.00 11.37    -0.125 N 
ATOM    162  N7   DA D   8      35.534  45.920  21.420  1.00 10.47    -0.219 NA
ATOM    163  C8   DA D   8      35.038  45.221  20.423  1.00 11.39     0.182 A 
ENDBRANCH  10 154
ENDBRANCH   6   7
ENDBRANCH   3   6
ENDBRANCH   2   3
ENDBRANCH   1   2
BRANCH   1 164
HETATM  164  C4' BRU D   9      33.371  40.587  13.008  1.00 14.07     0.175 C 
HETATM  165  O4' BRU D   9      32.548  40.983  11.871  1.00 13.32    -0.333 OA
HETATM  166  C1' BRU D   9      31.828  39.850  11.394  1.00 13.84     0.211 C 
HETATM  167  C2' BRU D   9      32.400  38.621  12.068  1.00 12.11     0.087 C 
HETATM  168  C3' BRU D   9      33.659  39.120  12.760  1.00 15.00     0.161 C 
BRANCH 166 169
HETATM  169  N1  BRU D   9      32.089  39.722   9.956  1.00 13.67    -0.255 N 
HETATM  170  C2  BRU D   9      31.361  40.472   9.104  1.00 11.22     0.354 A 
HETATM  171  O2  BRU D   9      30.484  41.204   9.506  1.00 13.50    -0.244 OA
HETATM  172  N3  BRU D   9      31.694  40.354   7.762  1.00 11.85    -0.153 NA
HETATM  173  C4  BRU D   9      32.657  39.563   7.276  1.00 10.30     0.291 A 
HETATM  174  O4  BRU D   9      32.964  39.590   6.055  1.00 12.93    -0.264 OA
HETATM  175  C5  BRU D   9      33.316  38.784   8.290  1.00 12.08     0.110 A 
HETATM  176  C6  BRU D   9      33.023  38.884   9.543  1.00 13.06     0.094 A 
HETATM  177 BR   BRU D   9      34.788  37.576   7.470  1.00 15.13    -0.043 Br
ENDBRANCH 166 169
BRANCH 168 178
HETATM  178  O3' BRU D   9      33.858  38.423  13.982  1.00 13.15    -0.271 OA
BRANCH 178 179
ATOM    179  P    DG D  10      34.586  37.021  13.925  1.00 14.52     0.410 P 
ATOM    180  OP2  DG D  10      33.633  35.866  14.017  1.00 14.92    -0.624 OA
ATOM    181  OP1  DG D  10      35.545  37.090  12.768  1.00 16.08    -0.624 OA
BRANCH 179 182
ATOM    182  O5'  DG D  10      35.435  36.953  15.296  1.00 14.63    -0.268 OA
BRANCH 182 183
ATOM    183  C5'  DG D  10      35.290  37.934  16.309  1.00 14.28     0.187 C 
BRANCH 183 184
ATOM    184  C4'  DG D  10      36.153  37.571  17.492  1.00 14.53     0.175 C 
ATOM    185  C3'  DG D  10      35.853  36.228  18.139  1.00 16.36     0.161 C 
ATOM    186  C2'  DG D  10      34.911  36.605  19.280  1.00 15.07     0.087 C 
ATOM    187  C1'  DG D  10      35.533  37.913  19.715  1.00 13.41     0.210 C 
ATOM    188  O4'  DG D  10      35.961  38.565  18.529  1.00 13.85    -0.333 OA
BRANCH 185 189
ATOM    189  O3'  DG D  10      37.125  35.772  18.605  1.00 20.48    -0.271 OA
BRANCH 189 190
ATOM    190  P    DG D  11      37.290  34.294  19.218  1.00 20.71     0.410 P 
ATOM    191  OP2  DG D  11      36.153  33.389  18.942  1.00 22.10    -0.624 OA
ATOM    192  OP1  DG D  11      38.683  33.877  18.906  1.00 24.32    -0.624 OA
BRANCH 190 193
ATOM    193  O5'  DG D  11      37.251  34.555  20.779  1.00 19.33    -0.268 OA
BRANCH 193 194
ATOM    194  C5'  DG D  11      36.228  33.950  21.562  1.00 18.66     0.187 C 
BRANCH 194 195
ATOM    195  C4'  DG D  11      35.926  34.837  22.743  1.00 18.71     0.175 C 
ATOM    196  C3'  DG D  11      35.356  34.078  23.923  1.00 19.69     0.161 C 
ATOM    197  C2'  DG D  11      33.858  34.181  23.701  1.00 18.26     0.087 C 
ATOM    198  C1'  DG D  11      33.748  35.602  23.160  1.00 15.98     0.210 C 
ATOM    199  O4'  DG D  11      34.951  35.867  22.458  1.00 17.85    -0.333 OA
BRANCH 196 200
ATOM    200  O3'  DG D  11      35.732  34.846  25.056  1.00 24.65    -0.271 OA
BRANCH 200 201
ATOM    201  P    DT D  12      35.673  34.199  26.479  1.00 28.19     0.410 P 
ATOM    202  OP2  DT D  12      34.402  34.432  27.201  1.00 27.85    -0.624 OA
ATOM    203  OP1  DT D  12      36.184  32.818  26.237  1.00 29.91    -0.624 OA
BRANCH 201 204
ATOM    204  O5'  DT D  12      36.729  35.026  27.319  1.00 28.66    -0.268 OA
BRANCH 204 205
ATOM    205  C5'  DT D  12      38.061  34.634  27.226  1.00 29.00     0.187 C 
BRANCH 205 206
ATOM    206  C4'  DT D  12      38.559  34.142  28.546  1.00 28.07     0.175 C 
ATOM    207  C3'  DT D  12      37.933  34.746  29.787  1.00 29.44     0.161 C 
ATOM    208  C2'  DT D  12      39.104  35.418  30.492  1.00 29.37     0.087 C 
ATOM    209  C1'  DT D  12      40.312  34.616  29.983  1.00 27.26     0.211 C 
ATOM    210  O4'  DT D  12      39.984  34.271  28.670  1.00 26.37    -0.333 OA
BRANCH 207 211
ATOM    211  O3'  DT D  12      37.489  33.584  30.437  1.00 31.26    -0.271 OA
BRANCH 211 212
ATOM    212  P    DA D  13      36.087  33.548  31.181  1.00 34.05     0.410 P 
ATOM    213  OP2  DA D  13      36.268  34.016  32.588  1.00 31.89    -0.624 OA
ATOM    214  OP1  DA D  13      35.209  34.283  30.259  1.00 33.32    -0.624 OA
BRANCH 212 215
ATOM    215  O5'  DA D  13      35.740  32.008  31.074  1.00 31.02    -0.268 OA
BRANCH 215 216
ATOM    216  C5'  DA D  13      35.486  31.420  29.798  1.00 27.53     0.187 C 
BRANCH 216 217
ATOM    217  C4'  DA D  13      34.108  30.808  29.783  1.00 25.33     0.175 C 
ATOM    218  O4'  DA D  13      34.111  29.528  29.104  1.00 22.92    -0.333 OA
ATOM    219  C1'  DA D  13      33.644  28.491  29.972  1.00 20.98     0.210 C 
ATOM    220  C2'  DA D  13      33.754  29.056  31.395  1.00 23.30     0.087 C 
ATOM    221  C3'  DA D  13      33.524  30.544  31.177  1.00 26.45     0.161 C 
BRANCH 219 222
ATOM    222  N9   DA D  13      34.484  27.329  29.714  1.00 17.31    -0.272 N 
ATOM    223  C8   DA D  13      35.830  27.264  29.806  1.00 17.58     0.182 A 
ATOM    224  N7   DA D  13      36.343  26.132  29.399  1.00 17.72    -0.219 NA
ATOM    225  C5   DA D  13      35.252  25.377  29.055  1.00 14.33     0.155 A 
ATOM    226  C6   DA D  13      35.107  24.070  28.564  1.00 14.45     0.206 A 
ATOM    227  C4   DA D  13      34.081  26.099  29.255  1.00 15.76     0.170 A 
ATOM    228  N6   DA D  13      36.142  23.233  28.271  1.00 15.52    -0.125 N 
ATOM    229  N1   DA D  13      33.862  23.636  28.366  1.00 14.59    -0.202 NA
ATOM    230  C2   DA D  13      32.825  24.453  28.591  1.00 15.74     0.202 A 
ATOM    231  N3   DA D  13      32.831  25.706  29.017  1.00 15.60    -0.205 NA
ENDBRANCH 219 222
BRANCH 221 232
ATOM    232  O3'  DA D  13      32.137  30.812  31.142  1.00 30.43    -0.271 OA
BRANCH 232 233
ATOM    233  P    DA D  14      31.540  31.938  32.097  1.00 32.07     0.410 P 
ATOM    234  OP2  DA D  14      30.601  31.318  33.020  1.00 33.16    -0.624 OA
ATOM    235  OP1  DA D  14      32.716  32.692  32.607  1.00 33.96    -0.624 OA
BRANCH 233 236
ATOM    236  O5'  DA D  14      30.786  32.873  31.085  1.00 31.87    -0.268 OA
BRANCH 236 237
ATOM    237  C5'  DA D  14      31.173  34.234  30.998  1.00 30.81     0.187 C 
BRANCH 237 238
ATOM    238  C4'  DA D  14      31.723  34.506  29.624  1.00 31.39     0.175 C 
ATOM    239  O4'  DA D  14      31.857  33.261  28.890  1.00 30.66    -0.333 OA
ATOM    240  C1'  DA D  14      31.194  33.406  27.649  1.00 28.20     0.210 C 
ATOM    241  C2'  DA D  14      30.070  34.389  27.907  1.00 29.16     0.087 C 
ATOM    242  C3'  DA D  14      30.807  35.386  28.780  1.00 31.09     0.161 C 
BRANCH 240 243
ATOM    243  N9   DA D  14      30.799  32.091  27.185  1.00 24.41    -0.272 N 
ATOM    244  C4   DA D  14      31.641  31.295  26.459  1.00 21.62     0.170 A 
ATOM    245  N3   DA D  14      32.924  31.567  26.133  1.00 18.94    -0.205 NA
ATOM    246  C5   DA D  14      30.896  30.202  26.104  1.00 22.12     0.155 A 
ATOM    247  C2   DA D  14      33.414  30.594  25.337  1.00 18.83     0.202 A 
ATOM    248  N1   DA D  14      32.807  29.497  24.935  1.00 18.79    -0.202 NA
ATOM    249  C6   DA D  14      31.522  29.258  25.325  1.00 19.52     0.206 A 
ATOM    250  N6   DA D  14      30.923  28.142  24.961  1.00 21.07    -0.125 N 
ATOM    251  N7   DA D  14      29.605  30.281  26.626  1.00 24.53    -0.219 NA
ATOM    252  C8   DA D  14      29.613  31.416  27.284  1.00 24.70     0.182 A 
ENDBRANCH 240 243
BRANCH 242 253
ATOM    253  O3'  DA D  14      31.664  36.185  27.995  1.00 31.14    -0.271 OA
BRANCH 253 254
ATOM    254  P    DC D  15      31.741  37.772  28.235  1.00 30.59     0.410 P 
ATOM    255  OP1  DC D  15      32.461  37.951  29.528  1.00 31.75    -0.624 OA
ATOM    256  OP2  DC D  15      30.431  38.453  27.998  1.00 29.87    -0.624 OA
BRANCH 254 257
ATOM    257  O5'  DC D  15      32.772  38.151  27.069  1.00 30.76    -0.268 OA
BRANCH 257 258
ATOM    258  C5'  DC D  15      34.198  37.960  27.274  1.00 28.28     0.187 C 
BRANCH 258 259
ATOM    259  C4'  DC D  15      34.906  39.285  27.491  1.00 28.15     0.175 C 
ATOM    260  O4'  DC D  15      36.316  39.189  27.188  1.00 23.18    -0.333 OA
ATOM    261  C1'  DC D  15      36.690  40.150  26.199  1.00 22.58     0.211 C 
ATOM    262  C2'  DC D  15      35.393  40.629  25.565  1.00 24.52     0.087 C 
ATOM    263  C3'  DC D  15      34.383  40.464  26.684  1.00 28.37     0.161 C 
BRANCH 261 264
ATOM    264  N1   DC D  15      37.549  39.465  25.230  1.00 18.64    -0.256 N 
ATOM    265  C6   DC D  15      37.085  38.387  24.526  1.00 16.47     0.085 A 
ATOM    266  C5   DC D  15      37.876  37.704  23.704  1.00 15.01     0.060 A 
ATOM    267  C4   DC D  15      39.249  38.141  23.602  1.00 13.33     0.190 A 
ATOM    268  N3   DC D  15      39.678  39.237  24.223  1.00 13.89    -0.171 NA
ATOM    269  N4   DC D  15      40.112  37.434  22.897  1.00 15.28    -0.127 N 
ATOM    270  C2   DC D  15      38.875  39.914  25.046  1.00 18.12     0.353 A 
ATOM    271  O2   DC D  15      39.255  40.923  25.683  1.00 20.47    -0.244 OA
ENDBRANCH 261 264
BRANCH 263 272
ATOM    272  O3'  DC D  15      34.387  41.637  27.484  1.00 31.34    -0.271 OA
BRANCH 272 273
ATOM    273  P    DG D  16      33.003  42.303  27.880  1.00 32.78     0.410 P 
ATOM    274  OP1  DG D  16      33.285  43.722  28.243  1.00 34.59    -0.624 OA
ATOM    275  OP2  DG D  16      32.354  41.399  28.863  1.00 31.45    -0.624 OA
BRANCH 273 276
ATOM    276  O5'  DG D  16      32.177  42.241  26.529  1.00 31.83    -0.268 OA
BRANCH 276 277
ATOM    277  C5'  DG D  16      30.933  41.562  26.469  1.00 31.48     0.187 C 
BRANCH 277 278
ATOM    278  C4'  DG D  16      30.285  41.822  25.133  1.00 29.56     0.178 C 
ATOM    279  C3'  DG D  16      28.942  42.561  25.204  1.00 29.50     0.186 C 
ATOM    280  C2'  DG D  16      27.930  41.442  24.996  1.00 28.21     0.090 C 
ATOM    281  O3'  DG D  16      28.845  43.455  24.073  1.00 31.52    -0.221 OA
ATOM    282  C1'  DG D  16      28.676  40.600  23.996  1.00 24.75     0.210 C 
ATOM    283  O4'  DG D  16      30.002  40.569  24.475  1.00 27.49    -0.333 OA
BRANCH 282 284
ATOM    284  N9   DG D  16      28.223  39.226  23.863  1.00 21.33    -0.271 N 
ATOM    285  C4   DG D  16      27.945  38.591  22.688  1.00 19.88     0.188 A 
ATOM    286  N3   DG D  16      28.085  39.124  21.442  1.00 18.33    -0.038 NA
ATOM    287  C5   DG D  16      27.503  37.338  23.046  1.00 17.85     0.176 A 
ATOM    288  C2   DG D  16      27.732  38.290  20.507  1.00 15.82     0.773 A 
ATOM    289  N1   DG D  16      27.247  37.014  20.769  1.00 16.33    -0.016 NA
ATOM    290  N2   DG D  16      27.845  38.648  19.188  1.00 16.23     0.062 N 
ATOM    291  C6   DG D  16      27.103  36.448  22.031  1.00 15.94     0.316 A 
ATOM    292  O6   DG D  16      26.651  35.274  22.127  1.00 18.70    -0.263 OA
ATOM    293  N7   DG D  16      27.557  37.179  24.426  1.00 18.48    -0.217 NA
ATOM    294  C8   DG D  16      27.979  38.330  24.868  1.00 19.50     0.182 A 
ENDBRANCH 282 284
ENDBRANCH 277 278
ENDBRANCH 276 277
ENDBRANCH 273 276
ENDBRANCH 272 273
ENDBRANCH 263 272
ENDBRANCH 258 259
ENDBRANCH 257 258
ENDBRANCH 254 257
ENDBRANCH 253 254
ENDBRANCH 242 253
ENDBRANCH 237 238
ENDBRANCH 236 237
ENDBRANCH 233 236
ENDBRANCH 232 233
ENDBRANCH 221 232
ENDBRANCH 216 217
ENDBRANCH 215 216
ENDBRANCH 212 215
ENDBRANCH 211 212
ENDBRANCH 207 211
BRANCH 209 295
ATOM    295  N1   DT D  12      41.593  35.325  29.896  1.00 25.54    -0.256 N 
ATOM    296  C6   DT D  12      41.809  36.299  28.942  1.00 22.97     0.083 A 
ATOM    297  C5   DT D  12      42.989  36.927  28.773  1.00 22.23     0.053 A 
ATOM    298  C4   DT D  12      44.074  36.563  29.640  1.00 20.03     0.280 A 
ATOM    299  C7   DT D  12      43.237  37.987  27.749  1.00 23.27     0.038 C 
ATOM    300  O4   DT D  12      45.196  37.056  29.548  1.00 18.53    -0.265 OA
ATOM    301  N3   DT D  12      43.783  35.600  30.607  1.00 19.51    -0.153 NA
ATOM    302  C2   DT D  12      42.591  34.952  30.785  1.00 22.25     0.354 A 
ATOM    303  O2   DT D  12      42.416  34.106  31.654  1.00 24.24    -0.244 OA
ENDBRANCH 209 295
ENDBRANCH 205 206
ENDBRANCH 204 205
ENDBRANCH 201 204
ENDBRANCH 200 201
ENDBRANCH 196 200
BRANCH 198 304
ATOM    304  N9   DG D  11      32.659  35.836  22.217  1.00 15.12    -0.271 N 
ATOM    305  C8   DG D  11      31.747  36.865  22.233  1.00 13.13     0.182 A 
ATOM    306  N7   DG D  11      30.822  36.743  21.318  1.00 13.46    -0.217 NA
ATOM    307  C5   DG D  11      31.141  35.560  20.660  1.00 11.37     0.176 A 
ATOM    308  C6   DG D  11      30.471  34.914  19.608  1.00 10.16     0.316 A 
ATOM    309  C4   DG D  11      32.286  35.000  21.175  1.00 12.33     0.188 A 
ATOM    310  O6   DG D  11      29.421  35.232  19.092  1.00 10.86    -0.263 OA
ATOM    311  N1   DG D  11      31.161  33.765  19.192  1.00 10.07    -0.016 NA
ATOM    312  C2   DG D  11      32.336  33.289  19.768  1.00 11.41     0.773 A 
ATOM    313  N2   DG D  11      32.907  32.174  19.221  1.00 10.83     0.062 N 
ATOM    314  N3   DG D  11      32.925  33.870  20.797  1.00 11.83    -0.038 NA
ENDBRANCH 198 304
ENDBRANCH 194 195
ENDBRANCH 193 194
ENDBRANCH 190 193
ENDBRANCH 189 190
ENDBRANCH 185 189
BRANCH 187 315
ATOM    315  N9   DG D  10      34.582  38.779  20.396  1.00 11.23    -0.271 N 
ATOM    316  C8   DG D  10      34.740  39.423  21.610  1.00 12.20     0.182 A 
ATOM    317  N7   DG D  10      33.719  40.200  21.907  1.00 12.66    -0.217 NA
ATOM    318  C5   DG D  10      32.837  40.023  20.846  1.00 10.47     0.176 A 
ATOM    319  C4   DG D  10      33.352  39.149  19.915  1.00 10.52     0.188 A 
ATOM    320  C6   DG D  10      31.527  40.587  20.601  1.00 11.39     0.316 A 
ATOM    321  N3   DG D  10      32.790  38.726  18.767  1.00 10.98    -0.038 NA
ATOM    322  C2   DG D  10      31.612  39.297  18.542  1.00  8.78     0.773 A 
ATOM    323  N1   DG D  10      30.999  40.168  19.403  1.00  9.45    -0.016 NA
ATOM    324  N2   DG D  10      30.952  39.054  17.415  1.00 10.60     0.062 N 
ATOM    325  O6   DG D  10      30.850  41.353  21.326  1.00 10.46    -0.263 OA
ENDBRANCH 187 315
ENDBRANCH 183 184
ENDBRANCH 182 183
ENDBRANCH 179 182
ENDBRANCH 178 179
ENDBRANCH 168 178
ENDBRANCH   1 164
TORSDOF 92
ENDMDL
MODEL 9
REMARK VINA RESULT:      -0.1      2.580      6.166
REMARK WARNING: 32 MAX_TORS EXCEEDED!!!
REMARK  92 active torsions:
REMARK  status: ('A' for Active; 'I' for Inactive)
REMARK    1  A    between atoms: C5'_1  and  C4'_3 
REMARK    2  A    between atoms: C3'_5  and  O3'_6 
REMARK    3  A    between atoms: O3'_6  and  P_17 
REMARK    4  A    between atoms: C1'_8  and  N1_9 
REMARK    5  A    between atoms: P_17  and  O5'_19 
REMARK    6  A    between atoms: C5'_18  and  O5'_19 
REMARK    7  A    between atoms: C5'_18  and  C4'_20 
REMARK    8  A    between atoms: C3'_22  and  O3'_23 
REMARK    9  A    between atoms: O3'_23  and  P_39 
REMARK   10  A    between atoms: C1'_25  and  N9_36 
REMARK   11  A    between atoms: P_39  and  O5'_41 
REMARK   12  A    between atoms: C5'_40  and  O5'_41 
REMARK   13  A    between atoms: C5'_40  and  C4'_42 
REMARK   14  A    between atoms: C3'_44  and  O3'_45 
REMARK   15  A    between atoms: O3'_45  and  P_59 
REMARK   16  A    between atoms: C1'_47  and  N1_48 
REMARK   17  A    between atoms: P_59  and  O5'_61 
REMARK   18  A    between atoms: C5'_60  and  C4'_62 
REMARK   19  A    between atoms: C5'_60  and  O5'_61 
REMARK   20  A    between atoms: C3'_64  and  O3'_65 
REMARK   21  A    between atoms: O3'_65  and  P_79 
REMARK   22  A    between atoms: C1'_67  and  N1_68 
REMARK   23  A    between atoms: P_79  and  O5'_81 
REMARK   24  A    between atoms: C5'_80  and  C4'_82 
REMARK   25  A    between atoms: C5'_80  and  O5'_81 
REMARK   26  A    between atoms: C3'_84  and  O3'_85 
REMARK   27  A    between atoms: O3'_85  and  P_100 
REMARK   28  A    between atoms: C1'_87  and  N9_97 
REMARK   29  A    between atoms: P_100  and  O5'_102 
REMARK   30  A    between atoms: C5'_101  and  C4'_103 
REMARK   31  A    between atoms: C5'_101  and  O5'_102 
REMARK   32  A    between atoms: C3'_105  and  O3'_106 
REMARK   33  A    between atoms: O3'_106  and  P_119 
REMARK   34  A    between atoms: C1'_108  and  N1_109 
REMARK   35  A    between atoms: P_119  and  O5'_121 
REMARK   36  A    between atoms: C5'_120  and  O5'_121 
REMARK   37  A    between atoms: C5'_120  and  C4'_122 
REMARK   38  A    between atoms: C3'_124  and  O3'_125 
REMARK   39  A    between atoms: O3'_125  and  P_138 
REMARK   40  A    between atoms: C1'_127  and  N1_128 
REMARK   41  A    between atoms: P_138  and  O5'_140 
REMARK   42  A    between atoms: C5'_139  and  C4'_141 
REMARK   43  A    between atoms: C5'_139  and  O5'_140 
REMARK   44  A    between atoms: C3'_143  and  O3'_144 
REMARK   45  A    between atoms: O3'_144  and  P_159 
REMARK   46  A    between atoms: C1'_146  and  N9_156 
REMARK   47  A    between atoms: P_159  and  O5'_161 
REMARK   48  A    between atoms: C5'_160  and  O5'_161 
REMARK   49  A    between atoms: C5'_160  and  C4'_162 
REMARK   50  A    between atoms: C3'_164  and  O3'_165 
REMARK   51  A    between atoms: O3'_165  and  P_179 
REMARK   52  A    between atoms: C1'_167  and  N1_168 
REMARK   53  A    between atoms: P_179  and  O5'_181 
REMARK   54  A    between atoms: C5'_180  and  C4'_182 
REMARK   55  A    between atoms: C5'_180  and  O5'_181 
REMARK   56  A    between atoms: C3'_184  and  O3'_185 
REMARK   57  A    between atoms: O3'_185  and  P_201 
REMARK   58  A    between atoms: C1'_187  and  N9_198 
REMARK   59  A    between atoms: P_201  and  O5'_203 
REMARK   60  A    between atoms: C5'_202  and  O5'_203 
REMARK   61  A    between atoms: C5'_202  and  C4'_204 
REMARK   62  A    between atoms: C3'_206  and  O3'_207 
REMARK   63  A    between atoms: O3'_207  and  P_223 
REMARK   64  A    between atoms: C1'_209  and  N9_220 
REMARK   65  A    between atoms: P_223  and  O5'_225 
REMARK   66  A    between atoms: C5'_224  and  O5'_225 
REMARK   67  A    between atoms: C5'_224  and  C4'_226 
REMARK   68  A    between atoms: C3'_228  and  O3'_229 
REMARK   69  A    between atoms: O3'_229  and  P_243 
REMARK   70  A    between atoms: C1'_231  and  N1_232 
REMARK   71  A    between atoms: P_243  and  O5'_245 
REMARK   72  A    between atoms: C5'_244  and  C4'_246 
REMARK   73  A    between atoms: C5'_244  and  O5'_245 
REMARK   74  A    between atoms: C3'_248  and  O3'_249 
REMARK   75  A    between atoms: O3'_249  and  P_264 
REMARK   76  A    between atoms: C1'_251  and  N9_261 
REMARK   77  A    between atoms: P_264  and  O5'_266 
REMARK   78  A    between atoms: C5'_265  and  C4'_267 
REMARK   79  A    between atoms: C5'_265  and  O5'_266 
REMARK   80  A    between atoms: C3'_269  and  O3'_270 
REMARK   81  A    between atoms: O3'_270  and  P_285 
REMARK   82  A    between atoms: C1'_272  and  N9_282 
REMARK   83  A    between atoms: P_285  and  O5'_287 
REMARK   84  A    between atoms: C5'_286  and  O5'_287 
REMARK   85  A    between atoms: C5'_286  and  C4'_288 
REMARK   86  A    between atoms: C3'_290  and  O3'_291 
REMARK   87  A    between atoms: O3'_291  and  P_304 
REMARK   88  A    between atoms: C1'_293  and  N1_294 
REMARK   89  A    between atoms: P_304  and  O5'_306 
REMARK   90  A    between atoms: C5'_305  and  C4'_307 
REMARK   91  A    between atoms: C5'_305  and  O5'_306 
REMARK   92  A    between atoms: C1'_312  and  N9_323 
ROOT
HETATM    1  C5' BRU D   9      42.058  42.508  12.154  1.00 14.48     0.187 C 
ENDROOT
BRANCH   1   2
HETATM    2  O5' BRU D   9      42.784  41.500  12.832  1.00 12.82    -0.268 OA
BRANCH   2   3
HETATM    3  P   BRU D   9      44.352  41.625  13.006  1.00 11.11     0.410 P 
HETATM    4  OP1 BRU D   9      44.932  42.448  11.882  1.00 14.53    -0.624 OA
HETATM    5  OP2 BRU D   9      44.532  42.072  14.412  1.00 12.75    -0.624 OA
BRANCH   3   6
ATOM      6  O3'  DA D   8      44.866  40.158  12.700  1.00 11.43    -0.271 OA
BRANCH   6   7
ATOM      7  C3'  DA D   8      44.001  39.066  12.946  1.00 10.57     0.161 C 
ATOM      8  C4'  DA D   8      44.624  38.166  14.009  1.00 11.52     0.175 C 
ATOM      9  O4'  DA D   8      44.136  36.844  13.722  1.00 11.40    -0.333 OA
ATOM     10  C1'  DA D   8      43.715  36.760  12.350  1.00 11.23     0.210 C 
ATOM     11  C2'  DA D   8      43.906  38.146  11.738  1.00 12.23     0.087 C 
BRANCH   8  12
ATOM     12  C5'  DA D   8      44.291  38.511  15.438  1.00 13.06     0.187 C 
BRANCH  12  13
ATOM     13  O5'  DA D   8      43.384  37.577  15.969  1.00 11.03    -0.268 OA
BRANCH  13  14
ATOM     14  P    DA D   8      43.371  37.305  17.558  1.00 12.25     0.410 P 
ATOM     15  OP2  DA D   8      42.071  37.871  18.069  1.00 11.74    -0.624 OA
ATOM     16  OP1  DA D   8      44.636  37.761  18.153  1.00 15.55    -0.624 OA
BRANCH  14  17
ATOM     17  O3'  DC D   7      43.336  35.711  17.699  1.00 12.10    -0.271 OA
BRANCH  17  18
ATOM     18  C3'  DC D   7      42.123  35.004  17.371  1.00 11.74     0.161 C 
ATOM     19  C2'  DC D   7      42.235  34.158  16.104  1.00 11.76     0.087 C 
ATOM     20  C1'  DC D   7      41.210  33.045  16.347  1.00 12.42     0.211 C 
ATOM     21  O4'  DC D   7      41.058  32.949  17.759  1.00 12.34    -0.333 OA
ATOM     22  C4'  DC D   7      41.872  33.951  18.429  1.00 11.56     0.175 C 
BRANCH  20  23
ATOM     23  N1   DC D   7      39.902  33.485  15.806  1.00 11.09    -0.256 N 
ATOM     24  C2   DC D   7      39.476  32.896  14.614  1.00  9.80     0.353 A 
ATOM     25  O2   DC D   7      40.261  32.091  14.080  1.00 10.91    -0.244 OA
ATOM     26  N3   DC D   7      38.274  33.209  14.073  1.00  9.76    -0.171 NA
ATOM     27  C4   DC D   7      37.511  34.124  14.649  1.00 11.68     0.190 A 
ATOM     28  N4   DC D   7      36.311  34.424  14.076  1.00 10.83    -0.127 N 
ATOM     29  C5   DC D   7      37.925  34.785  15.873  1.00 10.32     0.060 A 
ATOM     30  C6   DC D   7      39.124  34.431  16.411  1.00 11.95     0.085 A 
ENDBRANCH  20  23
BRANCH  22  31
ATOM     31  C5'  DC D   7      41.156  34.437  19.658  1.00 14.18     0.187 C 
BRANCH  31  32
ATOM     32  O5'  DC D   7      39.962  33.660  19.823  1.00 16.43    -0.268 OA
BRANCH  32  33
ATOM     33  P    DC D   7      39.785  32.781  21.134  1.00 18.54     0.410 P 
ATOM     34  OP1  DC D   7      38.519  33.161  21.742  1.00 22.71    -0.624 OA
ATOM     35  OP2  DC D   7      40.074  31.401  20.752  1.00 19.79    -0.624 OA
BRANCH  33  36
ATOM     36  O3'  DC D   6      40.890  33.421  22.121  1.00 17.13    -0.271 OA
BRANCH  36  37
ATOM     37  C3'  DC D   6      41.649  32.597  22.976  1.00 14.94     0.161 C 
ATOM     38  C4'  DC D   6      40.911  32.530  24.308  1.00 15.77     0.175 C 
ATOM     39  O4'  DC D   6      41.520  33.550  25.121  1.00 13.81    -0.333 OA
ATOM     40  C1'  DC D   6      42.405  34.295  24.333  1.00 12.86     0.211 C 
ATOM     41  C2'  DC D   6      42.940  33.315  23.321  1.00 14.65     0.087 C 
BRANCH  38  42
ATOM     42  C5'  DC D   6      41.029  31.186  24.984  1.00 18.13     0.187 C 
BRANCH  42  43
ATOM     43  O5'  DC D   6      40.777  30.155  24.035  1.00 19.27    -0.268 OA
BRANCH  43  44
ATOM     44  P    DC D   6      39.438  29.277  24.129  1.00 19.84     0.410 P 
ATOM     45  OP1  DC D   6      38.398  30.098  23.457  1.00 24.35    -0.624 OA
ATOM     46  OP2  DC D   6      39.739  27.934  23.634  1.00 20.92    -0.624 OA
BRANCH  44  47
ATOM     47  O3'  DA D   5      39.137  29.308  25.692  1.00 19.93    -0.271 OA
BRANCH  47  48
ATOM     48  C3'  DA D   5      39.132  28.101  26.451  1.00 16.89     0.161 C 
ATOM     49  C4'  DA D   5      38.258  28.377  27.670  1.00 17.32     0.175 C 
ATOM     50  O4'  DA D   5      39.156  28.818  28.694  1.00 18.24    -0.333 OA
ATOM     51  C1'  DA D   5      40.518  28.703  28.240  1.00 15.77     0.210 C 
ATOM     52  C2'  DA D   5      40.500  27.773  27.045  1.00 16.34     0.087 C 
BRANCH  49  53
ATOM     53  C5'  DA D   5      37.384  27.225  28.114  1.00 17.61     0.187 C 
BRANCH  53  54
ATOM     54  O5'  DA D   5      36.012  27.595  28.001  1.00 19.33    -0.268 OA
BRANCH  54  55
ATOM     55  P    DA D   5      35.134  27.771  29.302  1.00 20.74     0.410 P 
ATOM     56  OP2  DA D   5      34.965  26.483  30.014  1.00 23.47    -0.624 OA
ATOM     57  OP1  DA D   5      33.934  28.577  28.900  1.00 23.99    -0.624 OA
BRANCH  55  58
ATOM     58  O3'  DT D   4      36.013  28.804  30.178  1.00 19.59    -0.271 OA
BRANCH  58  59
ATOM     59  C3'  DT D   4      35.529  30.128  30.488  1.00 18.10     0.161 C 
ATOM     60  C4'  DT D   4      36.276  31.131  29.593  1.00 15.82     0.175 C 
ATOM     61  O4'  DT D   4      37.268  31.760  30.425  1.00 16.38    -0.333 OA
ATOM     62  C1'  DT D   4      37.322  31.155  31.714  1.00 15.63     0.211 C 
ATOM     63  C2'  DT D   4      35.919  30.552  31.905  1.00 16.56     0.087 C 
BRANCH  60  64
ATOM     64  C5'  DT D   4      35.442  32.233  28.973  1.00 17.08     0.187 C 
BRANCH  64  65
ATOM     65  O5'  DT D   4      35.700  33.484  29.643  1.00 15.07    -0.268 OA
BRANCH  65  66
ATOM     66  P    DT D   4      35.866  34.822  28.789  1.00 15.11     0.410 P 
ATOM     67  OP1  DT D   4      34.935  34.754  27.592  1.00 18.00    -0.624 OA
ATOM     68  OP2  DT D   4      35.728  35.939  29.770  1.00 17.03    -0.624 OA
BRANCH  66  69
HETATM   69  O3' BRU D   3      37.306  34.674  28.198  1.00 15.24    -0.271 OA
BRANCH  69  70
HETATM   70  C3' BRU D   3      38.408  35.433  28.708  1.00 13.22     0.161 C 
HETATM   71  C4' BRU D   3      39.074  36.003  27.455  1.00 14.89     0.175 C 
HETATM   72  O4' BRU D   3      40.482  35.722  27.573  1.00 16.05    -0.333 OA
HETATM   73  C1' BRU D   3      40.599  34.506  28.303  1.00 15.34     0.211 C 
HETATM   74  C2' BRU D   3      39.530  34.644  29.398  1.00 12.90     0.087 C 
BRANCH  71  75
HETATM   75  C5' BRU D   3      38.826  37.444  27.091  1.00 17.61     0.187 C 
BRANCH  75  76
HETATM   76  O5' BRU D   3      37.561  37.880  27.546  1.00 15.66    -0.268 OA
BRANCH  76  77
HETATM   77  P   BRU D   3      36.439  38.166  26.444  1.00 16.77     0.410 P 
HETATM   78  OP1 BRU D   3      36.604  37.119  25.396  1.00 18.57    -0.624 OA
HETATM   79  OP2 BRU D   3      35.128  38.363  27.123  1.00 18.18    -0.624 OA
BRANCH  77  80
ATOM     80  O3'  DG D   2      36.866  39.551  25.786  1.00 17.32    -0.271 OA
BRANCH  80  81
ATOM     81  C3'  DG D   2      36.938  39.703  24.378  1.00 15.47     0.161 C 
ATOM     82  C2'  DG D   2      35.523  39.719  23.783  1.00 16.87     0.087 C 
ATOM     83  C1'  DG D   2      35.049  41.131  24.123  1.00 16.11     0.210 C 
ATOM     84  O4'  DG D   2      36.228  41.946  24.100  1.00 18.37    -0.333 OA
ATOM     85  C4'  DG D   2      37.423  41.139  24.173  1.00 18.34     0.175 C 
BRANCH  83  86
ATOM     86  N9   DG D   2      34.113  41.728  23.172  1.00 16.03    -0.272 N 
ATOM     87  C8   DG D   2      34.223  41.779  21.803  1.00 14.57     0.182 A 
ATOM     88  N7   DG D   2      33.268  42.472  21.228  1.00 16.34    -0.217 NA
ATOM     89  C5   DG D   2      32.469  42.900  22.303  1.00 13.99     0.175 A 
ATOM     90  C6   DG D   2      31.296  43.712  22.310  1.00 12.33     0.302 A 
ATOM     91  C4   DG D   2      32.960  42.415  23.503  1.00 12.94     0.172 A 
ATOM     92  O6   DG D   2      30.747  44.223  21.351  1.00 15.71    -0.263 OA
ATOM     93  N1   DG D   2      30.803  43.903  23.583  1.00 12.85    -0.174 NA
ATOM     94  C2   DG D   2      31.348  43.371  24.735  1.00 12.30     0.242 A 
ATOM     95  N2   DG D   2      30.697  43.644  25.929  1.00 15.13    -0.059 NA
ATOM     96  N3   DG D   2      32.462  42.594  24.747  1.00 14.89    -0.195 NA
ENDBRANCH  83  86
BRANCH  85  97
ATOM     97  C5'  DG D   2      38.292  41.373  22.961  1.00 20.11     0.187 C 
BRANCH  97  98
ATOM     98  O5'  DG D   2      39.663  41.155  23.275  1.00 21.44    -0.268 OA
BRANCH  98  99
ATOM     99  P    DG D   2      40.676  42.369  23.370  1.00 23.19     0.410 P 
ATOM    100  OP1  DG D   2      41.568  42.202  22.186  1.00 25.33    -0.624 OA
ATOM    101  OP2  DG D   2      40.015  43.659  23.619  1.00 23.21    -0.624 OA
BRANCH  99 102
ATOM    102  O3'  DC D   1      41.561  42.072  24.670  1.00 26.59    -0.271 OA
BRANCH 102 103
ATOM    103  C3'  DC D   1      41.135  41.050  25.562  1.00 27.88     0.161 C 
ATOM    104  C2'  DC D   1      42.352  40.232  25.945  1.00 26.06     0.087 C 
ATOM    105  C1'  DC D   1      43.007  41.171  26.931  1.00 24.51     0.211 C 
ATOM    106  O4'  DC D   1      41.927  41.769  27.665  1.00 29.50    -0.333 OA
ATOM    107  C4'  DC D   1      40.732  41.722  26.868  1.00 29.48     0.178 C 
BRANCH 105 108
ATOM    108  N1   DC D   1      43.927  40.598  27.920  1.00 21.38    -0.256 N 
ATOM    109  C6   DC D   1      43.533  39.604  28.775  1.00 19.62     0.085 A 
ATOM    110  C5   DC D   1      44.363  39.153  29.738  1.00 19.43     0.060 A 
ATOM    111  C4   DC D   1      45.673  39.725  29.790  1.00 17.00     0.190 A 
ATOM    112  N4   DC D   1      46.555  39.315  30.702  1.00 18.52    -0.127 N 
ATOM    113  N3   DC D   1      46.066  40.679  28.931  1.00 17.32    -0.171 NA
ATOM    114  C2   DC D   1      45.210  41.129  28.003  1.00 18.49     0.353 A 
ATOM    115  O2   DC D   1      45.538  42.021  27.213  1.00 18.51    -0.244 OA
ENDBRANCH 105 108
BRANCH 107 116
ATOM    116  C5'  DC D   1      39.613  41.049  27.632  1.00 31.78     0.214 C 
ATOM    117  O5'  DC D   1      40.131  40.360  28.774  1.00 34.90    -0.218 OA
ENDBRANCH 107 116
ENDBRANCH 102 103
ENDBRANCH  99 102
ENDBRANCH  98  99
ENDBRANCH  97  98
ENDBRANCH  85  97
ENDBRANCH  80  81
ENDBRANCH  77  80
ENDBRANCH  76  77
ENDBRANCH  75  76
ENDBRANCH  71  75
BRANCH  73 118
HETATM  118  N1  BRU D   3      41.969  34.423  28.816  1.00 13.25    -0.255 N 
HETATM  119  C2  BRU D   3      42.542  35.521  29.495  1.00 11.90     0.354 A 
HETATM  120  O2  BRU D   3      41.957  36.576  29.657  1.00 16.11    -0.244 OA
HETATM  121  N3  BRU D   3      43.804  35.333  29.964  1.00 12.15    -0.153 NA
HETATM  122  C4  BRU D   3      44.526  34.210  29.864  1.00 12.48     0.291 A 
HETATM  123  O4  BRU D   3      45.697  34.123  30.285  1.00 16.38    -0.264 OA
HETATM  124  C5  BRU D   3      43.852  33.188  29.141  1.00 14.67     0.110 A 
HETATM  125  C6  BRU D   3      42.651  33.329  28.659  1.00 13.17     0.094 A 
HETATM  126 BR   BRU D   3      44.887  31.386  28.806  1.00 24.07    -0.043 Br
ENDBRANCH  73 118
ENDBRANCH  69  70
ENDBRANCH  66  69
ENDBRANCH  65  66
ENDBRANCH  64  65
ENDBRANCH  60  64
BRANCH  62 127
ATOM    127  N1   DT D   4      37.762  32.222  32.658  1.00 13.98    -0.256 N 
ATOM    128  C2   DT D   4      38.323  31.849  33.847  1.00 13.56     0.354 A 
ATOM    129  O2   DT D   4      38.416  30.665  34.165  1.00 16.57    -0.244 OA
ATOM    130  N3   DT D   4      38.795  32.881  34.650  1.00 12.35    -0.153 NA
ATOM    131  C4   DT D   4      38.748  34.238  34.344  1.00 11.46     0.280 A 
ATOM    132  O4   DT D   4      39.248  35.086  35.100  1.00 13.76    -0.265 OA
ATOM    133  C5   DT D   4      38.078  34.548  33.096  1.00 12.51     0.053 A 
ATOM    134  C7   DT D   4      37.903  35.980  32.713  1.00 14.43     0.038 C 
ATOM    135  C6   DT D   4      37.637  33.555  32.321  1.00 14.14     0.083 A 
ENDBRANCH  62 127
ENDBRANCH  58  59
ENDBRANCH  55  58
ENDBRANCH  54  55
ENDBRANCH  53  54
ENDBRANCH  49  53
BRANCH  51 136
ATOM    136  N9   DA D   5      41.259  28.201  29.405  1.00 14.16    -0.272 N 
ATOM    137  C4   DA D   5      41.759  28.976  30.429  1.00 14.21     0.170 A 
ATOM    138  C5   DA D   5      42.181  28.077  31.398  1.00 12.40     0.155 A 
ATOM    139  N3   DA D   5      41.816  30.311  30.506  1.00 13.46    -0.205 NA
ATOM    140  C6   DA D   5      42.733  28.597  32.567  1.00 12.04     0.206 A 
ATOM    141  N7   DA D   5      41.979  26.789  30.973  1.00 14.47    -0.219 NA
ATOM    142  N6   DA D   5      43.179  27.809  33.566  1.00 12.46    -0.125 N 
ATOM    143  N1   DA D   5      42.816  29.943  32.686  1.00 13.98    -0.202 NA
ATOM    144  C2   DA D   5      42.349  30.696  31.669  1.00 14.25     0.202 A 
ATOM    145  C8   DA D   5      41.465  26.913  29.770  1.00 14.09     0.182 A 
ENDBRANCH  51 136
ENDBRANCH  47  48
ENDBRANCH  44  47
ENDBRANCH  43  44
ENDBRANCH  42  43
ENDBRANCH  38  42
BRANCH  40 146
ATOM    146  N1   DC D   6      43.394  34.962  25.227  1.00 11.89    -0.256 N 
ATOM    147  C2   DC D   6      43.162  36.308  25.558  1.00 11.45     0.353 A 
ATOM    148  O2   DC D   6      42.114  36.808  25.208  1.00 12.57    -0.244 OA
ATOM    149  N3   DC D   6      44.100  37.003  26.256  1.00 11.17    -0.171 NA
ATOM    150  C4   DC D   6      45.208  36.393  26.662  1.00 11.08     0.190 A 
ATOM    151  N4   DC D   6      46.136  37.094  27.334  1.00 10.70    -0.127 N 
ATOM    152  C5   DC D   6      45.439  34.993  26.385  1.00 10.83     0.060 A 
ATOM    153  C6   DC D   6      44.510  34.335  25.671  1.00 11.79     0.085 A 
ENDBRANCH  40 146
ENDBRANCH  36  37
ENDBRANCH  33  36
ENDBRANCH  32  33
ENDBRANCH  31  32
ENDBRANCH  22  31
ENDBRANCH  17  18
ENDBRANCH  14  17
ENDBRANCH  13  14
ENDBRANCH  12  13
ENDBRANCH   8  12
BRANCH  10 154
ATOM    154  N9   DA D   8      42.292  36.421  12.361  1.00 10.83    -0.272 N 
ATOM    155  C4   DA D   8      41.618  35.921  11.274  1.00  9.99     0.170 A 
ATOM    156  N3   DA D   8      42.124  35.675  10.036  1.00 10.21    -0.205 NA
ATOM    157  C5   DA D   8      40.335  35.681  11.711  1.00 10.31     0.155 A 
ATOM    158  C2   DA D   8      41.211  35.160   9.251  1.00 10.39     0.202 A 
ATOM    159  N1   DA D   8      39.918  34.880   9.532  1.00 11.14    -0.202 NA
ATOM    160  C6   DA D   8      39.458  35.096  10.786  1.00 10.09     0.206 A 
ATOM    161  N6   DA D   8      38.223  34.704  11.065  1.00 11.37    -0.125 N 
ATOM    162  N7   DA D   8      40.192  36.072  13.055  1.00 10.47    -0.219 NA
ATOM    163  C8   DA D   8      41.387  36.517  13.377  1.00 11.39     0.182 A 
ENDBRANCH  10 154
ENDBRANCH   6   7
ENDBRANCH   3   6
ENDBRANCH   2   3
ENDBRANCH   1   2
BRANCH   1 164
HETATM  164  C4' BRU D   9      41.392  43.433  13.146  1.00 14.07     0.175 C 
HETATM  165  O4' BRU D   9      40.381  44.224  12.453  1.00 13.32    -0.333 OA
HETATM  166  C1' BRU D   9      39.357  44.590  13.374  1.00 13.84     0.211 C 
HETATM  167  C2' BRU D   9      39.568  43.790  14.642  1.00 12.11     0.087 C 
HETATM  168  C3' BRU D   9      40.629  42.764  14.271  1.00 15.00     0.161 C 
BRANCH 166 169
HETATM  169  N1  BRU D   9      38.070  44.177  12.805  1.00 13.67    -0.255 N 
HETATM  170  C2  BRU D   9      36.943  44.724  13.306  1.00 11.22     0.354 A 
HETATM  171  O2  BRU D   9      36.983  45.504  14.231  1.00 13.50    -0.244 OA
HETATM  172  N3  BRU D   9      35.761  44.341  12.688  1.00 11.85    -0.153 NA
HETATM  173  C4  BRU D   9      35.673  43.486  11.663  1.00 10.30     0.291 A 
HETATM  174  O4  BRU D   9      34.571  43.269  11.092  1.00 12.93    -0.264 OA
HETATM  175  C5  BRU D   9      36.945  42.943  11.265  1.00 12.08     0.110 A 
HETATM  176  C6  BRU D   9      38.054  43.291  11.825  1.00 13.06     0.094 A 
HETATM  177 BR   BRU D   9      36.735  41.623   9.680  1.00 15.13    -0.043 Br
ENDBRANCH 166 169
BRANCH 168 178
HETATM  178  O3' BRU D   9      41.475  42.508  15.383  1.00 13.15    -0.271 OA
BRANCH 178 179
ATOM    179  P    DG D  10      41.343  41.108  16.106  1.00 14.52     0.410 P 
ATOM    180  OP2  DG D  10      41.120  39.977  15.146  1.00 14.92    -0.624 OA
ATOM    181  OP1  DG D  10      42.484  41.027  17.083  1.00 16.08    -0.624 OA
BRANCH 179 182
ATOM    182  O5'  DG D  10      39.961  41.212  16.934  1.00 14.63    -0.268 OA
BRANCH 182 183
ATOM    183  C5'  DG D  10      39.532  40.172  17.796  1.00 14.28     0.187 C 
BRANCH 183 184
ATOM    184  C4'  DG D  10      38.033  40.028  17.708  1.00 14.53     0.175 C 
ATOM    185  C3'  DG D  10      37.224  41.113  18.403  1.00 16.36     0.161 C 
ATOM    186  C2'  DG D  10      36.936  40.496  19.770  1.00 15.07     0.087 C 
ATOM    187  C1'  DG D  10      36.714  39.056  19.368  1.00 13.41     0.210 C 
ATOM    188  O4'  DG D  10      37.648  38.780  18.336  1.00 13.85    -0.333 OA
BRANCH 185 189
ATOM    189  O3'  DG D  10      36.049  41.242  17.600  1.00 20.48    -0.271 OA
BRANCH 189 190
ATOM    190  P    DG D  11      35.673  42.651  16.921  1.00 20.71     0.410 P 
ATOM    191  OP2  DG D  11      34.379  43.215  17.364  1.00 22.10    -0.624 OA
ATOM    192  OP1  DG D  11      36.912  43.470  16.970  1.00 24.32    -0.624 OA
BRANCH 190 193
ATOM    193  O5'  DG D  11      35.464  42.263  15.401  1.00 19.33    -0.268 OA
BRANCH 193 194
ATOM    194  C5'  DG D  11      36.419  41.429  14.755  1.00 18.66     0.187 C 
BRANCH 194 195
ATOM    195  C4'  DG D  11      35.709  40.239  14.161  1.00 18.71     0.175 C 
ATOM    196  C3'  DG D  11      35.888  38.975  14.977  1.00 19.69     0.161 C 
ATOM    197  C2'  DG D  11      37.106  38.331  14.339  1.00 18.26     0.087 C 
ATOM    198  C1'  DG D  11      36.865  38.658  12.870  1.00 15.98     0.210 C 
ATOM    199  O4'  DG D  11      36.171  39.894  12.834  1.00 17.85    -0.333 OA
BRANCH 196 200
ATOM    200  O3'  DG D  11      34.730  38.204  14.697  1.00 24.65    -0.271 OA
BRANCH 200 201
ATOM    201  P    DT D  12      33.905  37.596  15.879  1.00 28.19     0.410 P 
ATOM    202  OP2  DT D  12      34.123  38.268  17.180  1.00 27.85    -0.624 OA
ATOM    203  OP1  DT D  12      32.539  37.462  15.296  1.00 29.91    -0.624 OA
BRANCH 201 204
ATOM    204  O5'  DT D  12      34.544  36.164  16.095  1.00 28.66    -0.268 OA
BRANCH 204 205
ATOM    205  C5'  DT D  12      34.533  35.654  17.390  1.00 29.00     0.187 C 
BRANCH 205 206
ATOM    206  C4'  DT D  12      33.812  34.346  17.434  1.00 28.07     0.175 C 
ATOM    207  C3'  DT D  12      34.658  33.090  17.383  1.00 29.44     0.161 C 
ATOM    208  C2'  DT D  12      34.198  32.397  16.108  1.00 29.37     0.087 C 
ATOM    209  C1'  DT D  12      32.770  32.931  15.927  1.00 27.26     0.211 C 
ATOM    210  O4'  DT D  12      32.816  34.242  16.405  1.00 26.37    -0.333 OA
BRANCH 207 211
ATOM    211  O3'  DT D  12      34.224  32.446  18.551  1.00 31.26    -0.271 OA
BRANCH 211 212
ATOM    212  P    DA D  13      35.242  32.096  19.719  1.00 34.05     0.410 P 
ATOM    213  OP2  DA D  13      36.335  31.236  19.174  1.00 31.89    -0.624 OA
ATOM    214  OP1  DA D  13      35.547  33.415  20.292  1.00 33.32    -0.624 OA
BRANCH 212 215
ATOM    215  O5'  DA D  13      34.284  31.331  20.720  1.00 31.02    -0.268 OA
BRANCH 215 216
ATOM    216  C5'  DA D  13      32.872  31.523  20.645  1.00 27.53     0.187 C 
BRANCH 216 217
ATOM    217  C4'  DA D  13      32.180  30.604  21.621  1.00 25.33     0.175 C 
ATOM    218  O4'  DA D  13      33.132  29.978  22.516  1.00 22.92    -0.333 OA
ATOM    219  C1'  DA D  13      32.825  30.280  23.879  1.00 20.98     0.210 C 
ATOM    220  C2'  DA D  13      31.893  31.501  23.836  1.00 23.30     0.087 C 
ATOM    221  C3'  DA D  13      31.153  31.303  22.521  1.00 26.45     0.161 C 
BRANCH 219 222
ATOM    222  N9   DA D  13      34.097  30.513  24.547  1.00 17.31    -0.272 N 
ATOM    223  C8   DA D  13      34.709  29.700  25.436  1.00 17.58     0.182 A 
ATOM    224  N7   DA D  13      35.784  30.208  25.978  1.00 17.72    -0.219 NA
ATOM    225  C5   DA D  13      35.920  31.428  25.370  1.00 14.33     0.155 A 
ATOM    226  C6   DA D  13      36.867  32.458  25.486  1.00 14.45     0.206 A 
ATOM    227  C4   DA D  13      34.885  31.635  24.464  1.00 15.76     0.170 A 
ATOM    228  N6   DA D  13      37.922  32.446  26.349  1.00 15.52    -0.125 N 
ATOM    229  N1   DA D  13      36.702  33.520  24.697  1.00 14.59    -0.202 NA
ATOM    230  C2   DA D  13      35.644  33.587  23.878  1.00 15.74     0.202 A 
ATOM    231  N3   DA D  13      34.671  32.706  23.704  1.00 15.60    -0.205 NA
ENDBRANCH 219 222
BRANCH 221 232
ATOM    232  O3'  DA D  13      30.058  30.432  22.716  1.00 30.43    -0.271 OA
BRANCH 232 233
ATOM    233  P    DA D  14      28.579  31.023  22.665  1.00 32.07     0.410 P 
ATOM    234  OP2  DA D  14      27.804  30.257  21.701  1.00 33.16    -0.624 OA
ATOM    235  OP1  DA D  14      28.140  31.120  24.083  1.00 33.96    -0.624 OA
BRANCH 233 236
ATOM    236  O5'  DA D  14      28.819  32.486  22.147  1.00 31.87    -0.268 OA
BRANCH 236 237
ATOM    237  C5'  DA D  14      27.844  33.476  22.428  1.00 30.81     0.187 C 
BRANCH 237 238
ATOM    238  C4'  DA D  14      28.420  34.835  22.137  1.00 31.39     0.175 C 
ATOM    239  O4'  DA D  14      27.905  35.805  23.084  1.00 30.66    -0.333 OA
ATOM    240  C1'  DA D  14      29.003  36.481  23.667  1.00 28.20     0.210 C 
ATOM    241  C2'  DA D  14      30.140  35.478  23.660  1.00 29.16     0.087 C 
ATOM    242  C3'  DA D  14      29.938  34.881  22.281  1.00 31.09     0.161 C 
BRANCH 240 243
ATOM    243  N9   DA D  14      28.597  36.979  24.965  1.00 24.41    -0.272 N 
ATOM    244  C4   DA D  14      27.736  38.032  25.103  1.00 21.62     0.170 A 
ATOM    245  N3   DA D  14      27.112  38.696  24.104  1.00 18.94    -0.205 NA
ATOM    246  C5   DA D  14      27.681  38.288  26.446  1.00 22.12     0.155 A 
ATOM    247  C2   DA D  14      26.408  39.730  24.608  1.00 18.83     0.202 A 
ATOM    248  N1   DA D  14      26.270  40.075  25.871  1.00 18.79    -0.202 NA
ATOM    249  C6   DA D  14      26.896  39.346  26.839  1.00 19.52     0.206 A 
ATOM    250  N6   DA D  14      26.728  39.660  28.107  1.00 21.07    -0.125 N 
ATOM    251  N7   DA D  14      28.471  37.389  27.163  1.00 24.53    -0.219 NA
ATOM    252  C8   DA D  14      28.971  36.615  26.231  1.00 24.70     0.182 A 
ENDBRANCH 240 243
BRANCH 242 253
ATOM    253  O3'  DA D  14      30.388  35.777  21.289  1.00 31.14    -0.271 OA
BRANCH 253 254
ATOM    254  P    DC D  15      31.576  35.357  20.293  1.00 30.59     0.410 P 
ATOM    255  OP1  DC D  15      31.008  34.299  19.409  1.00 31.75    -0.624 OA
ATOM    256  OP2  DC D  15      32.870  35.131  21.007  1.00 29.87    -0.624 OA
BRANCH 254 257
ATOM    257  O5'  DC D  15      31.660  36.699  19.423  1.00 30.76    -0.268 OA
BRANCH 257 258
ATOM    258  C5'  DC D  15      30.726  36.913  18.331  1.00 28.28     0.187 C 
BRANCH 258 259
ATOM    259  C4'  DC D  15      30.106  38.296  18.398  1.00 28.15     0.175 C 
ATOM    260  O4'  DC D  15      29.695  38.630  19.743  1.00 23.18    -0.333 OA
ATOM    261  C1'  DC D  15      30.314  39.841  20.178  1.00 22.58     0.211 C 
ATOM    262  C2'  DC D  15      31.461  40.098  19.215  1.00 24.52     0.087 C 
ATOM    263  C3'  DC D  15      30.984  39.447  17.931  1.00 28.37     0.161 C 
BRANCH 261 264
ATOM    264  N1   DC D  15      30.789  39.620  21.546  1.00 18.64    -0.256 N 
ATOM    265  C6   DC D  15      31.907  38.866  21.782  1.00 16.47     0.085 A 
ATOM    266  C5   DC D  15      32.306  38.588  23.020  1.00 15.01     0.060 A 
ATOM    267  C4   DC D  15      31.497  39.103  24.100  1.00 13.33     0.190 A 
ATOM    268  N3   DC D  15      30.459  39.904  23.872  1.00 13.89    -0.171 NA
ATOM    269  N4   DC D  15      31.771  38.762  25.346  1.00 15.28    -0.127 N 
ATOM    270  C2   DC D  15      30.068  40.176  22.625  1.00 18.12     0.353 A 
ATOM    271  O2   DC D  15      29.070  40.888  22.370  1.00 20.47    -0.244 OA
ENDBRANCH 261 264
BRANCH 263 272
ATOM    272  O3'  DC D  15      30.206  40.385  17.202  1.00 31.34    -0.271 OA
BRANCH 272 273
ATOM    273  P    DG D  16      30.817  41.038  15.892  1.00 32.78     0.410 P 
ATOM    274  OP1  DG D  16      32.291  40.813  15.934  1.00 34.59    -0.624 OA
ATOM    275  OP2  DG D  16      30.278  42.419  15.806  1.00 31.45    -0.624 OA
BRANCH 273 276
ATOM    276  O5'  DG D  16      30.168  40.180  14.729  1.00 31.83    -0.268 OA
BRANCH 276 277
ATOM    277  C5'  DG D  16      29.710  40.800  13.538  1.00 31.48     0.187 C 
BRANCH 277 278
ATOM    278  C4'  DG D  16      29.543  39.757  12.463  1.00 29.56     0.178 C 
ATOM    279  C3'  DG D  16      28.112  39.610  11.927  1.00 29.50     0.186 C 
ATOM    280  C2'  DG D  16      27.618  38.351  12.626  1.00 28.21     0.090 C 
ATOM    281  O3'  DG D  16      28.175  39.329  10.511  1.00 31.52    -0.221 OA
ATOM    282  C1'  DG D  16      28.885  37.540  12.628  1.00 24.75     0.210 C 
ATOM    283  O4'  DG D  16      29.895  38.457  12.983  1.00 27.49    -0.333 OA
BRANCH 282 284
ATOM    284  N9   DG D  16      28.932  36.443  13.578  1.00 21.33    -0.271 N 
ATOM    285  C4   DG D  16      28.429  35.191  13.373  1.00 19.88     0.188 A 
ATOM    286  N3   DG D  16      27.836  34.749  12.229  1.00 18.33    -0.038 NA
ATOM    287  C5   DG D  16      28.649  34.512  14.549  1.00 17.85     0.176 A 
ATOM    288  C2   DG D  16      27.440  33.512  12.325  1.00 15.82     0.773 A 
ATOM    289  N1   DG D  16      27.592  32.753  13.479  1.00 16.33    -0.016 NA
ATOM    290  N2   DG D  16      26.856  32.892  11.251  1.00 16.23     0.062 N 
ATOM    291  C6   DG D  16      28.201  33.181  14.654  1.00 15.94     0.316 A 
ATOM    292  O6   DG D  16      28.275  32.385  15.630  1.00 18.70    -0.263 OA
ATOM    293  N7   DG D  16      29.329  35.317  15.456  1.00 18.48    -0.217 NA
ATOM    294  C8   DG D  16      29.464  36.457  14.839  1.00 19.50     0.182 A 
ENDBRANCH 282 284
ENDBRANCH 277 278
ENDBRANCH 276 277
ENDBRANCH 273 276
ENDBRANCH 272 273
ENDBRANCH 263 272
ENDBRANCH 258 259
ENDBRANCH 257 258
ENDBRANCH 254 257
ENDBRANCH 253 254
ENDBRANCH 242 253
ENDBRANCH 237 238
ENDBRANCH 236 237
ENDBRANCH 233 236
ENDBRANCH 232 233
ENDBRANCH 221 232
ENDBRANCH 216 217
ENDBRANCH 215 216
ENDBRANCH 212 215
ENDBRANCH 211 212
ENDBRANCH 207 211
BRANCH 209 295
ATOM    295  N1   DT D  12      32.265  33.030  14.553  1.00 25.54    -0.256 N 
ATOM    296  C6   DT D  12      32.414  34.188  13.818  1.00 22.97     0.083 A 
ATOM    297  C5   DT D  12      31.905  34.355  12.581  1.00 22.23     0.053 A 
ATOM    298  C4   DT D  12      31.175  33.264  12.001  1.00 20.03     0.280 A 
ATOM    299  C7   DT D  12      32.064  35.600  11.769  1.00 23.27     0.038 C 
ATOM    300  O4   DT D  12      30.649  33.326  10.893  1.00 18.53    -0.265 OA
ATOM    301  N3   DT D  12      31.091  32.108  12.779  1.00 19.51    -0.153 NA
ATOM    302  C2   DT D  12      31.598  31.928  14.037  1.00 22.25     0.354 A 
ATOM    303  O2   DT D  12      31.472  30.882  14.663  1.00 24.24    -0.244 OA
ENDBRANCH 209 295
ENDBRANCH 205 206
ENDBRANCH 204 205
ENDBRANCH 201 204
ENDBRANCH 200 201
ENDBRANCH 196 200
BRANCH 198 304
ATOM    304  N9   DG D  11      38.064  38.834  12.057  1.00 15.12    -0.271 N 
ATOM    305  C8   DG D  11      39.235  39.457  12.421  1.00 13.13     0.182 A 
ATOM    306  N7   DG D  11      40.090  39.554  11.437  1.00 13.46    -0.217 NA
ATOM    307  C5   DG D  11      39.442  38.963  10.358  1.00 11.37     0.176 A 
ATOM    308  C6   DG D  11      39.874  38.814   9.029  1.00 10.16     0.316 A 
ATOM    309  C4   DG D  11      38.207  38.484  10.723  1.00 12.33     0.188 A 
ATOM    310  O6   DG D  11      40.893  39.239   8.529  1.00 10.86    -0.263 OA
ATOM    311  N1   DG D  11      38.937  38.103   8.265  1.00 10.07    -0.016 NA
ATOM    312  C2   DG D  11      37.712  37.635   8.736  1.00 11.41     0.773 A 
ATOM    313  N2   DG D  11      36.926  36.924   7.873  1.00 10.83     0.062 N 
ATOM    314  N3   DG D  11      37.290  37.833   9.972  1.00 11.83    -0.038 NA
ENDBRANCH 198 304
ENDBRANCH 194 195
ENDBRANCH 193 194
ENDBRANCH 190 193
ENDBRANCH 189 190
ENDBRANCH 185 189
BRANCH 187 315
ATOM    315  N9   DG D  10      36.958  38.130  20.466  1.00 11.23    -0.271 N 
ATOM    316  C8   DG D  10      36.064  37.248  21.045  1.00 12.20     0.182 A 
ATOM    317  N7   DG D  10      36.625  36.492  21.966  1.00 12.66    -0.217 NA
ATOM    318  C5   DG D  10      37.944  36.932  22.009  1.00 10.47     0.176 A 
ATOM    319  C4   DG D  10      38.160  37.941  21.099  1.00 10.52     0.188 A 
ATOM    320  C6   DG D  10      39.055  36.510  22.836  1.00 11.39     0.316 A 
ATOM    321  N3   DG D  10      39.298  38.619  20.858  1.00 10.98    -0.038 NA
ATOM    322  C2   DG D  10      40.312  38.178  21.593  1.00  8.78     0.773 A 
ATOM    323  N1   DG D  10      40.210  37.192  22.537  1.00  9.45    -0.016 NA
ATOM    324  N2   DG D  10      41.530  38.683  21.428  1.00 10.60     0.062 N 
ATOM    325  O6   DG D  10      39.076  35.657  23.755  1.00 10.46    -0.263 OA
ENDBRANCH 187 315
ENDBRANCH 183 184
ENDBRANCH 182 183
ENDBRANCH 179 182
ENDBRANCH 178 179
ENDBRANCH 168 178
ENDBRANCH   1 164
TORSDOF 92
ENDMDL
MODEL 10
REMARK VINA RESULT:      -0.0      2.864      6.961
REMARK WARNING: 32 MAX_TORS EXCEEDED!!!
REMARK  92 active torsions:
REMARK  status: ('A' for Active; 'I' for Inactive)
REMARK    1  A    between atoms: C5'_1  and  C4'_3 
REMARK    2  A    between atoms: C3'_5  and  O3'_6 
REMARK    3  A    between atoms: O3'_6  and  P_17 
REMARK    4  A    between atoms: C1'_8  and  N1_9 
REMARK    5  A    between atoms: P_17  and  O5'_19 
REMARK    6  A    between atoms: C5'_18  and  O5'_19 
REMARK    7  A    between atoms: C5'_18  and  C4'_20 
REMARK    8  A    between atoms: C3'_22  and  O3'_23 
REMARK    9  A    between atoms: O3'_23  and  P_39 
REMARK   10  A    between atoms: C1'_25  and  N9_36 
REMARK   11  A    between atoms: P_39  and  O5'_41 
REMARK   12  A    between atoms: C5'_40  and  O5'_41 
REMARK   13  A    between atoms: C5'_40  and  C4'_42 
REMARK   14  A    between atoms: C3'_44  and  O3'_45 
REMARK   15  A    between atoms: O3'_45  and  P_59 
REMARK   16  A    between atoms: C1'_47  and  N1_48 
REMARK   17  A    between atoms: P_59  and  O5'_61 
REMARK   18  A    between atoms: C5'_60  and  C4'_62 
REMARK   19  A    between atoms: C5'_60  and  O5'_61 
REMARK   20  A    between atoms: C3'_64  and  O3'_65 
REMARK   21  A    between atoms: O3'_65  and  P_79 
REMARK   22  A    between atoms: C1'_67  and  N1_68 
REMARK   23  A    between atoms: P_79  and  O5'_81 
REMARK   24  A    between atoms: C5'_80  and  C4'_82 
REMARK   25  A    between atoms: C5'_80  and  O5'_81 
REMARK   26  A    between atoms: C3'_84  and  O3'_85 
REMARK   27  A    between atoms: O3'_85  and  P_100 
REMARK   28  A    between atoms: C1'_87  and  N9_97 
REMARK   29  A    between atoms: P_100  and  O5'_102 
REMARK   30  A    between atoms: C5'_101  and  C4'_103 
REMARK   31  A    between atoms: C5'_101  and  O5'_102 
REMARK   32  A    between atoms: C3'_105  and  O3'_106 
REMARK   33  A    between atoms: O3'_106  and  P_119 
REMARK   34  A    between atoms: C1'_108  and  N1_109 
REMARK   35  A    between atoms: P_119  and  O5'_121 
REMARK   36  A    between atoms: C5'_120  and  O5'_121 
REMARK   37  A    between atoms: C5'_120  and  C4'_122 
REMARK   38  A    between atoms: C3'_124  and  O3'_125 
REMARK   39  A    between atoms: O3'_125  and  P_138 
REMARK   40  A    between atoms: C1'_127  and  N1_128 
REMARK   41  A    between atoms: P_138  and  O5'_140 
REMARK   42  A    between atoms: C5'_139  and  C4'_141 
REMARK   43  A    between atoms: C5'_139  and  O5'_140 
REMARK   44  A    between atoms: C3'_143  and  O3'_144 
REMARK   45  A    between atoms: O3'_144  and  P_159 
REMARK   46  A    between atoms: C1'_146  and  N9_156 
REMARK   47  A    between atoms: P_159  and  O5'_161 
REMARK   48  A    between atoms: C5'_160  and  O5'_161 
REMARK   49  A    between atoms: C5'_160  and  C4'_162 
REMARK   50  A    between atoms: C3'_164  and  O3'_165 
REMARK   51  A    between atoms: O3'_165  and  P_179 
REMARK   52  A    between atoms: C1'_167  and  N1_168 
REMARK   53  A    between atoms: P_179  and  O5'_181 
REMARK   54  A    between atoms: C5'_180  and  C4'_182 
REMARK   55  A    between atoms: C5'_180  and  O5'_181 
REMARK   56  A    between atoms: C3'_184  and  O3'_185 
REMARK   57  A    between atoms: O3'_185  and  P_201 
REMARK   58  A    between atoms: C1'_187  and  N9_198 
REMARK   59  A    between atoms: P_201  and  O5'_203 
REMARK   60  A    between atoms: C5'_202  and  O5'_203 
REMARK   61  A    between atoms: C5'_202  and  C4'_204 
REMARK   62  A    between atoms: C3'_206  and  O3'_207 
REMARK   63  A    between atoms: O3'_207  and  P_223 
REMARK   64  A    between atoms: C1'_209  and  N9_220 
REMARK   65  A    between atoms: P_223  and  O5'_225 
REMARK   66  A    between atoms: C5'_224  and  O5'_225 
REMARK   67  A    between atoms: C5'_224  and  C4'_226 
REMARK   68  A    between atoms: C3'_228  and  O3'_229 
REMARK   69  A    between atoms: O3'_229  and  P_243 
REMARK   70  A    between atoms: C1'_231  and  N1_232 
REMARK   71  A    between atoms: P_243  and  O5'_245 
REMARK   72  A    between atoms: C5'_244  and  C4'_246 
REMARK   73  A    between atoms: C5'_244  and  O5'_245 
REMARK   74  A    between atoms: C3'_248  and  O3'_249 
REMARK   75  A    between atoms: O3'_249  and  P_264 
REMARK   76  A    between atoms: C1'_251  and  N9_261 
REMARK   77  A    between atoms: P_264  and  O5'_266 
REMARK   78  A    between atoms: C5'_265  and  C4'_267 
REMARK   79  A    between atoms: C5'_265  and  O5'_266 
REMARK   80  A    between atoms: C3'_269  and  O3'_270 
REMARK   81  A    between atoms: O3'_270  and  P_285 
REMARK   82  A    between atoms: C1'_272  and  N9_282 
REMARK   83  A    between atoms: P_285  and  O5'_287 
REMARK   84  A    between atoms: C5'_286  and  O5'_287 
REMARK   85  A    between atoms: C5'_286  and  C4'_288 
REMARK   86  A    between atoms: C3'_290  and  O3'_291 
REMARK   87  A    between atoms: O3'_291  and  P_304 
REMARK   88  A    between atoms: C1'_293  and  N1_294 
REMARK   89  A    between atoms: P_304  and  O5'_306 
REMARK   90  A    between atoms: C5'_305  and  C4'_307 
REMARK   91  A    between atoms: C5'_305  and  O5'_306 
REMARK   92  A    between atoms: C1'_312  and  N9_323 
ROOT
HETATM    1  C5' BRU D   9      41.246  43.227  11.842  1.00 14.48     0.187 C 
ENDROOT
BRANCH   1   2
HETATM    2  O5' BRU D   9      42.041  42.340  12.604  1.00 12.82    -0.268 OA
BRANCH   2   3
HETATM    3  P   BRU D   9      43.567  42.664  12.872  1.00 11.11     0.410 P 
HETATM    4  OP1 BRU D   9      44.108  43.547  11.773  1.00 14.53    -0.624 OA
HETATM    5  OP2 BRU D   9      43.600  43.141  14.280  1.00 12.75    -0.624 OA
BRANCH   3   6
ATOM      6  O3'  DA D   8      44.281  41.272  12.620  1.00 11.43    -0.271 OA
BRANCH   6   7
ATOM      7  C3'  DA D   8      43.540  40.082  12.805  1.00 10.57     0.161 C 
ATOM      8  C4'  DA D   8      44.154  39.286  13.953  1.00 11.52     0.175 C 
ATOM      9  O4'  DA D   8      43.871  37.908  13.655  1.00 11.40    -0.333 OA
ATOM     10  C1'  DA D   8      43.615  37.749  12.250  1.00 11.23     0.210 C 
ATOM     11  C2'  DA D   8      43.693  39.139  11.622  1.00 12.23     0.087 C 
BRANCH   8  12
ATOM     12  C5'  DA D   8      43.628  39.606  15.329  1.00 13.06     0.187 C 
BRANCH  12  13
ATOM     13  O5'  DA D   8      42.791  38.573  15.787  1.00 11.03    -0.268 OA
BRANCH  13  14
ATOM     14  P    DA D   8      42.655  38.311  17.372  1.00 12.25     0.410 P 
ATOM     15  OP2  DA D   8      41.243  38.690  17.739  1.00 11.74    -0.624 OA
ATOM     16  OP1  DA D   8      43.777  38.945  18.081  1.00 15.55    -0.624 OA
BRANCH  14  17
ATOM     17  O3'  DC D   7      42.830  36.729  17.541  1.00 12.10    -0.271 OA
BRANCH  17  18
ATOM     18  C3'  DC D   7      41.774  35.855  17.094  1.00 11.74     0.161 C 
ATOM     19  C2'  DC D   7      42.149  35.022  15.870  1.00 11.76     0.087 C 
ATOM     20  C1'  DC D   7      41.268  33.777  16.022  1.00 12.42     0.211 C 
ATOM     21  O4'  DC D   7      40.969  33.673  17.410  1.00 12.34    -0.333 OA
ATOM     22  C4'  DC D   7      41.551  34.786  18.142  1.00 11.56     0.175 C 
BRANCH  20  23
ATOM     23  N1   DC D   7      39.984  34.023  15.325  1.00 11.09    -0.256 N 
ATOM     24  C2   DC D   7      39.752  33.308  14.148  1.00  9.80     0.353 A 
ATOM     25  O2   DC D   7      40.672  32.565  13.758  1.00 10.91    -0.244 OA
ATOM     26  N3   DC D   7      38.585  33.440  13.472  1.00  9.76    -0.171 NA
ATOM     27  C4   DC D   7      37.671  34.297  13.897  1.00 11.68     0.190 A 
ATOM     28  N4   DC D   7      36.512  34.415  13.189  1.00 10.83    -0.127 N 
ATOM     29  C5   DC D   7      37.880  35.085  15.097  1.00 10.32     0.060 A 
ATOM     30  C6   DC D   7      39.048  34.912  15.774  1.00 11.95     0.085 A 
ENDBRANCH  20  23
BRANCH  22  31
ATOM     31  C5'  DC D   7      40.636  35.176  19.270  1.00 14.18     0.187 C 
BRANCH  31  32
ATOM     32  O5'  DC D   7      39.470  34.344  19.215  1.00 16.43    -0.268 OA
BRANCH  32  33
ATOM     33  P    DC D   7      39.086  33.464  20.481  1.00 18.54     0.410 P 
ATOM     34  OP1  DC D   7      37.765  33.888  20.918  1.00 22.71    -0.624 OA
ATOM     35  OP2  DC D   7      39.373  32.076  20.126  1.00 19.79    -0.624 OA
BRANCH  33  36
ATOM     36  O3'  DC D   6      40.072  34.056  21.613  1.00 17.13    -0.271 OA
BRANCH  36  37
ATOM     37  C3'  DC D   6      40.688  33.197  22.546  1.00 14.94     0.161 C 
ATOM     38  C4'  DC D   6      39.721  33.030  23.712  1.00 15.77     0.175 C 
ATOM     39  O4'  DC D   6      40.135  34.010  24.681  1.00 13.81    -0.333 OA
ATOM     40  C1'  DC D   6      41.124  34.823  24.114  1.00 12.86     0.211 C 
ATOM     41  C2'  DC D   6      41.869  33.921  23.164  1.00 14.65     0.087 C 
BRANCH  38  42
ATOM     42  C5'  DC D   6      39.758  31.650  24.320  1.00 18.13     0.187 C 
BRANCH  42  43
ATOM     43  O5'  DC D   6      39.801  30.676  23.281  1.00 19.27    -0.268 OA
BRANCH  43  44
ATOM     44  P    DC D   6      38.569  29.674  23.058  1.00 19.84     0.410 P 
ATOM     45  OP1  DC D   6      37.517  30.504  22.416  1.00 24.35    -0.624 OA
ATOM     46  OP2  DC D   6      39.070  28.480  22.380  1.00 20.92    -0.624 OA
BRANCH  44  47
ATOM     47  O3'  DA D   5      38.105  29.388  24.555  1.00 19.93    -0.271 OA
BRANCH  47  48
ATOM     48  C3'  DA D   5      38.166  28.068  25.089  1.00 16.89     0.161 C 
ATOM     49  C4'  DA D   5      37.030  27.976  26.103  1.00 17.32     0.175 C 
ATOM     50  O4'  DA D   5      37.610  28.330  27.362  1.00 18.24    -0.333 OA
ATOM     51  C1'  DA D   5      39.033  28.499  27.222  1.00 15.77     0.210 C 
ATOM     52  C2'  DA D   5      39.423  27.826  25.922  1.00 16.34     0.087 C 
BRANCH  49  53
ATOM     53  C5'  DA D   5      36.306  26.647  26.145  1.00 17.61     0.187 C 
BRANCH  53  54
ATOM     54  O5'  DA D   5      34.905  26.862  25.997  1.00 19.33    -0.268 OA
BRANCH  54  55
ATOM     55  P    DA D   5      33.926  26.522  27.189  1.00 20.74     0.410 P 
ATOM     56  OP2  DA D   5      33.878  25.064  27.445  1.00 23.47    -0.624 OA
ATOM     57  OP1  DA D   5      32.662  27.288  26.933  1.00 23.99    -0.624 OA
BRANCH  55  58
ATOM     58  O3'  DT D   4      34.604  27.303  28.429  1.00 19.59    -0.271 OA
BRANCH  58  59
ATOM     59  C3'  DT D   4      33.924  28.388  29.096  1.00 18.10     0.161 C 
ATOM     60  C4'  DT D   4      34.376  29.707  28.448  1.00 15.82     0.175 C 
ATOM     61  O4'  DT D   4      35.321  30.304  29.355  1.00 16.38    -0.333 OA
ATOM     62  C1'  DT D   4      35.620  29.431  30.440  1.00 15.63     0.211 C 
ATOM     63  C2'  DT D   4      34.379  28.528  30.550  1.00 16.56     0.087 C 
BRANCH  60  64
ATOM     64  C5'  DT D   4      33.295  30.733  28.180  1.00 17.08     0.187 C 
BRANCH  64  65
ATOM     65  O5'  DT D   4      33.507  31.899  29.002  1.00 15.07    -0.268 OA
BRANCH  65  66
ATOM     66  P    DT D   4      33.494  33.351  28.339  1.00 15.11     0.410 P 
ATOM     67  OP1  DT D   4      33.178  33.209  26.863  1.00 18.00    -0.624 OA
ATOM     68  OP2  DT D   4      32.606  34.177  29.209  1.00 17.03    -0.624 OA
BRANCH  66  69
HETATM   69  O3' BRU D   3      35.000  33.768  28.399  1.00 15.24    -0.271 OA
BRANCH  69  70
HETATM   70  C3' BRU D   3      35.496  34.649  29.412  1.00 13.22     0.161 C 
HETATM   71  C4' BRU D   3      36.527  35.509  28.680  1.00 14.89     0.175 C 
HETATM   72  O4' BRU D   3      37.721  35.497  29.487  1.00 16.05    -0.333 OA
HETATM   73  C1' BRU D   3      37.757  34.238  30.149  1.00 15.34     0.211 C 
HETATM   74  C2' BRU D   3      36.294  34.007  30.557  1.00 12.90     0.087 C 
BRANCH  71  75
HETATM   75  C5' BRU D   3      36.149  36.909  28.272  1.00 17.61     0.187 C 
BRANCH  75  76
HETATM   76  O5' BRU D   3      34.745  37.074  28.236  1.00 15.66    -0.268 OA
BRANCH  76  77
HETATM   77  P   BRU D   3      34.049  37.158  26.800  1.00 16.77     0.410 P 
HETATM   78  OP1 BRU D   3      34.678  36.093  25.967  1.00 18.57    -0.624 OA
HETATM   79  OP2 BRU D   3      32.571  37.212  26.978  1.00 18.18    -0.624 OA
BRANCH  77  80
ATOM     80  O3'  DG D   2      34.526  38.555  26.204  1.00 17.32    -0.271 OA
BRANCH  80  81
ATOM     81  C3'  DG D   2      35.008  38.657  24.874  1.00 15.47     0.161 C 
ATOM     82  C2'  DG D   2      33.835  38.568  23.887  1.00 16.87     0.087 C 
ATOM     83  C1'  DG D   2      33.218  39.961  23.996  1.00 16.11     0.210 C 
ATOM     84  O4'  DG D   2      34.312  40.843  24.279  1.00 18.37    -0.333 OA
ATOM     85  C4'  DG D   2      35.466  40.111  24.746  1.00 18.34     0.175 C 
BRANCH  83  86
ATOM     86  N9   DG D   2      32.582  40.465  22.779  1.00 16.03    -0.272 N 
ATOM     87  C8   DG D   2      33.108  40.505  21.510  1.00 14.57     0.182 A 
ATOM     88  N7   DG D   2      32.330  41.109  20.642  1.00 16.34    -0.217 NA
ATOM     89  C5   DG D   2      31.209  41.488  21.401  1.00 13.99     0.175 A 
ATOM     90  C6   DG D   2      30.036  42.202  21.015  1.00 12.33     0.302 A 
ATOM     91  C4   DG D   2      31.337  41.062  22.712  1.00 12.94     0.172 A 
ATOM     92  O6   DG D   2      29.776  42.653  19.914  1.00 15.71    -0.263 OA
ATOM     93  N1   DG D   2      29.161  42.373  22.065  1.00 12.85    -0.174 NA
ATOM     94  C2   DG D   2      29.358  41.904  23.349  1.00 12.30     0.242 A 
ATOM     95  N2   DG D   2      28.352  42.142  24.273  1.00 15.13    -0.059 NA
ATOM     96  N3   DG D   2      30.467  41.220  23.734  1.00 14.89    -0.195 NA
ENDBRANCH  83  86
BRANCH  85  97
ATOM     97  C5'  DG D   2      36.646  40.351  23.835  1.00 20.11     0.187 C 
BRANCH  97  98
ATOM     98  O5'  DG D   2      37.857  39.945  24.462  1.00 21.44    -0.268 OA
BRANCH  98  99
ATOM     99  P    DG D   2      38.930  41.015  24.922  1.00 23.19     0.410 P 
ATOM    100  OP1  DG D   2      40.144  40.693  24.117  1.00 25.33    -0.624 OA
ATOM    101  OP2  DG D   2      38.406  42.389  24.948  1.00 23.21    -0.624 OA
BRANCH  99 102
ATOM    102  O3'  DC D   1      39.263  40.644  26.443  1.00 26.59    -0.271 OA
BRANCH 102 103
ATOM    103  C3'  DC D   1      38.291  39.929  27.195  1.00 27.88     0.161 C 
ATOM    104  C2'  DC D   1      39.028  38.989  28.129  1.00 26.06     0.087 C 
ATOM    105  C1'  DC D   1      39.492  39.968  29.182  1.00 24.51     0.211 C 
ATOM    106  O4'  DC D   1      38.411  40.900  29.342  1.00 29.50    -0.333 OA
ATOM    107  C4'  DC D   1      37.624  40.920  28.139  1.00 29.48     0.178 C 
BRANCH 105 108
ATOM    108  N1   DC D   1      39.804  39.446  30.518  1.00 21.38    -0.256 N 
ATOM    109  C6   DC D   1      38.817  39.089  31.396  1.00 19.62     0.085 A 
ATOM    110  C5   DC D   1      39.119  38.697  32.651  1.00 19.43     0.060 A 
ATOM    111  C4   DC D   1      40.504  38.630  32.997  1.00 17.00     0.190 A 
ATOM    112  N4   DC D   1      40.881  38.232  34.213  1.00 18.52    -0.127 N 
ATOM    113  N3   DC D   1      41.471  38.952  32.123  1.00 17.32    -0.171 NA
ATOM    114  C2   DC D   1      41.141  39.367  30.892  1.00 18.49     0.353 A 
ATOM    115  O2   DC D   1      42.009  39.689  30.074  1.00 18.51    -0.244 OA
ENDBRANCH 105 108
BRANCH 107 116
ATOM    116  C5'  DC D   1      36.170  40.645  28.454  1.00 31.78     0.214 C 
ATOM    117  O5'  DC D   1      35.839  41.135  29.757  1.00 34.90    -0.218 OA
ENDBRANCH 107 116
ENDBRANCH 102 103
ENDBRANCH  99 102
ENDBRANCH  98  99
ENDBRANCH  97  98
ENDBRANCH  85  97
ENDBRANCH  80  81
ENDBRANCH  77  80
ENDBRANCH  76  77
ENDBRANCH  75  76
ENDBRANCH  71  75
BRANCH  73 118
HETATM  118  N1  BRU D   3      38.679  34.355  31.281  1.00 13.25    -0.255 N 
HETATM  119  C2  BRU D   3      40.033  33.979  31.139  1.00 11.90     0.354 A 
HETATM  120  O2  BRU D   3      40.485  33.518  30.108  1.00 16.11    -0.244 OA
HETATM  121  N3  BRU D   3      40.815  34.160  32.237  1.00 12.15    -0.153 NA
HETATM  122  C4  BRU D   3      40.426  34.679  33.409  1.00 12.48     0.291 A 
HETATM  123  O4  BRU D   3      41.193  34.779  34.388  1.00 16.38    -0.264 OA
HETATM  124  C5  BRU D   3      39.040  34.996  33.434  1.00 14.67     0.110 A 
HETATM  125  C6  BRU D   3      38.250  34.824  32.414  1.00 13.17     0.094 A 
HETATM  126 BR   BRU D   3      38.243  35.733  35.238  1.00 24.07    -0.043 Br
ENDBRANCH  73 118
ENDBRANCH  69  70
ENDBRANCH  66  69
ENDBRANCH  65  66
ENDBRANCH  64  65
ENDBRANCH  60  64
BRANCH  62 127
ATOM    127  N1   DT D   4      35.957  30.305  31.600  1.00 13.98    -0.256 N 
ATOM    128  C2   DT D   4      34.942  30.959  32.240  1.00 13.56     0.354 A 
ATOM    129  O2   DT D   4      33.782  30.880  31.843  1.00 16.57    -0.244 OA
ATOM    130  N3   DT D   4      35.301  31.691  33.366  1.00 12.35    -0.153 NA
ATOM    131  C4   DT D   4      36.587  31.804  33.887  1.00 11.46     0.280 A 
ATOM    132  O4   DT D   4      36.804  32.436  34.934  1.00 13.76    -0.265 OA
ATOM    133  C5   DT D   4      37.611  31.134  33.109  1.00 12.51     0.053 A 
ATOM    134  C7   DT D   4      39.035  31.261  33.539  1.00 14.43     0.038 C 
ATOM    135  C6   DT D   4      37.262  30.423  32.036  1.00 14.14     0.083 A 
ENDBRANCH  62 127
ENDBRANCH  58  59
ENDBRANCH  55  58
ENDBRANCH  54  55
ENDBRANCH  53  54
ENDBRANCH  49  53
BRANCH  51 136
ATOM    136  N9   DA D   5      39.603  27.890  28.431  1.00 14.16    -0.272 N 
ATOM    137  C4   DA D   5      40.237  28.571  29.447  1.00 14.21     0.170 A 
ATOM    138  C5   DA D   5      40.411  27.640  30.461  1.00 12.40     0.155 A 
ATOM    139  N3   DA D   5      40.599  29.859  29.481  1.00 13.46    -0.205 NA
ATOM    140  C6   DA D   5      41.033  28.068  31.633  1.00 12.04     0.206 A 
ATOM    141  N7   DA D   5      39.931  26.416  30.072  1.00 14.47    -0.219 NA
ATOM    142  N6   DA D   5      41.255  27.241  32.674  1.00 12.46    -0.125 N 
ATOM    143  N1   DA D   5      41.421  29.363  31.709  1.00 13.98    -0.202 NA
ATOM    144  C2   DA D   5      41.171  30.160  30.650  1.00 14.25     0.202 A 
ATOM    145  C8   DA D   5      39.496  26.604  28.847  1.00 14.09     0.182 A 
ENDBRANCH  51 136
ENDBRANCH  47  48
ENDBRANCH  44  47
ENDBRANCH  43  44
ENDBRANCH  42  43
ENDBRANCH  38  42
BRANCH  40 146
ATOM    146  N1   DC D   6      41.910  35.455  25.213  1.00 11.89    -0.256 N 
ATOM    147  C2   DC D   6      41.217  36.291  26.106  1.00 11.45     0.353 A 
ATOM    148  O2   DC D   6      40.009  36.347  26.011  1.00 12.57    -0.244 OA
ATOM    149  N3   DC D   6      41.905  36.998  27.041  1.00 11.17    -0.171 NA
ATOM    150  C4   DC D   6      43.224  36.859  27.136  1.00 11.08     0.190 A 
ATOM    151  N4   DC D   6      43.896  37.577  28.051  1.00 10.70    -0.127 N 
ATOM    152  C5   DC D   6      43.949  35.959  26.269  1.00 10.83     0.060 A 
ATOM    153  C6   DC D   6      43.249  35.290  25.335  1.00 11.79     0.085 A 
ENDBRANCH  40 146
ENDBRANCH  36  37
ENDBRANCH  33  36
ENDBRANCH  32  33
ENDBRANCH  31  32
ENDBRANCH  22  31
ENDBRANCH  17  18
ENDBRANCH  14  17
ENDBRANCH  13  14
ENDBRANCH  12  13
ENDBRANCH   8  12
BRANCH  10 154
ATOM    154  N9   DA D   8      42.253  37.229  12.121  1.00 10.83    -0.272 N 
ATOM    155  C4   DA D   8      41.754  36.673  10.969  1.00  9.99     0.170 A 
ATOM    156  N3   DA D   8      42.400  36.523   9.782  1.00 10.21    -0.205 NA
ATOM    157  C5   DA D   8      40.478  36.259  11.279  1.00 10.31     0.155 A 
ATOM    158  C2   DA D   8      41.639  35.913   8.907  1.00 10.39     0.202 A 
ATOM    159  N1   DA D   8      40.374  35.463   9.061  1.00 11.14    -0.202 NA
ATOM    160  C6   DA D   8      39.774  35.588  10.268  1.00 10.09     0.206 A 
ATOM    161  N6   DA D   8      38.581  35.034  10.424  1.00 11.37    -0.125 N 
ATOM    162  N7   DA D   8      40.161  36.596  12.607  1.00 10.47    -0.219 NA
ATOM    163  C8   DA D   8      41.252  37.184  13.047  1.00 11.39     0.182 A 
ENDBRANCH  10 154
ENDBRANCH   6   7
ENDBRANCH   3   6
ENDBRANCH   2   3
ENDBRANCH   1   2
BRANCH   1 164
HETATM  164  C4' BRU D   9      40.421  44.107  12.753  1.00 14.07     0.175 C 
HETATM  165  O4' BRU D   9      39.395  44.780  11.964  1.00 13.32    -0.333 OA
HETATM  166  C1' BRU D   9      38.274  45.067  12.795  1.00 13.84     0.211 C 
HETATM  167  C2' BRU D   9      38.462  44.320  14.099  1.00 12.11     0.087 C 
HETATM  168  C3' BRU D   9      39.640  43.394  13.838  1.00 15.00     0.161 C 
BRANCH 166 169
HETATM  169  N1  BRU D   9      37.079  44.519  12.144  1.00 13.67    -0.255 N 
HETATM  170  C2  BRU D   9      35.871  44.965  12.543  1.00 11.22     0.354 A 
HETATM  171  O2  BRU D   9      35.765  45.767  13.444  1.00 13.50    -0.244 OA
HETATM  172  N3  BRU D   9      34.781  44.456  11.851  1.00 11.85    -0.153 NA
HETATM  173  C4  BRU D   9      34.853  43.573  10.848  1.00 10.30     0.291 A 
HETATM  174  O4  BRU D   9      33.824  43.238  10.204  1.00 12.93    -0.264 OA
HETATM  175  C5  BRU D   9      36.197  43.147  10.563  1.00 12.08     0.110 A 
HETATM  176  C6  BRU D   9      37.222  43.613  11.193  1.00 13.06     0.094 A 
HETATM  177 BR   BRU D   9      36.236  41.777   9.007  1.00 15.13    -0.043 Br
ENDBRANCH 166 169
BRANCH 168 178
HETATM  178  O3' BRU D   9      40.418  43.246  15.017  1.00 13.15    -0.271 OA
BRANCH 178 179
ATOM    179  P    DG D  10      40.363  41.857  15.771  1.00 14.52     0.410 P 
ATOM    180  OP2  DG D  10      40.344  40.687  14.833  1.00 14.92    -0.624 OA
ATOM    181  OP1  DG D  10      41.413  41.918  16.847  1.00 16.08    -0.624 OA
BRANCH 179 182
ATOM    182  O5'  DG D  10      38.909  41.837  16.470  1.00 14.63    -0.268 OA
BRANCH 182 183
ATOM    183  C5'  DG D  10      38.510  40.780  17.327  1.00 14.28     0.187 C 
BRANCH 183 184
ATOM    184  C4'  DG D  10      37.042  40.497  17.132  1.00 14.53     0.175 C 
ATOM    185  C3'  DG D  10      36.087  41.504  17.756  1.00 16.36     0.161 C 
ATOM    186  C2'  DG D  10      35.759  40.868  19.105  1.00 15.07     0.087 C 
ATOM    187  C1'  DG D  10      35.701  39.411  18.703  1.00 13.41     0.210 C 
ATOM    188  O4'  DG D  10      36.729  39.220  17.744  1.00 13.85    -0.333 OA
BRANCH 185 189
ATOM    189  O3'  DG D  10      34.967  41.520  16.869  1.00 20.48    -0.271 OA
BRANCH 189 190
ATOM    190  P    DG D  11      34.558  42.868  16.092  1.00 20.71     0.410 P 
ATOM    191  OP2  DG D  11      33.199  43.363  16.405  1.00 22.10    -0.624 OA
ATOM    192  OP1  DG D  11      35.734  43.771  16.196  1.00 24.32    -0.624 OA
BRANCH 190 193
ATOM    193  O5'  DG D  11      34.498  42.399  14.582  1.00 19.33    -0.268 OA
BRANCH 193 194
ATOM    194  C5'  DG D  11      35.575  41.644  14.042  1.00 18.66     0.187 C 
BRANCH 194 195
ATOM    195  C4'  DG D  11      35.027  40.396  13.397  1.00 18.71     0.175 C 
ATOM    196  C3'  DG D  11      35.211  39.158  14.250  1.00 19.69     0.161 C 
ATOM    197  C2'  DG D  11      36.536  38.603  13.758  1.00 18.26     0.087 C 
ATOM    198  C1'  DG D  11      36.432  38.896  12.266  1.00 15.98     0.210 C 
ATOM    199  O4'  DG D  11      35.654  40.075  12.134  1.00 17.85    -0.333 OA
BRANCH 196 200
ATOM    200  O3'  DG D  11      34.152  38.297  13.861  1.00 24.65    -0.271 OA
BRANCH 200 201
ATOM    201  P    DT D  12      33.431  37.427  14.943  1.00 28.19     0.410 P 
ATOM    202  OP2  DT D  12      33.588  37.926  16.328  1.00 27.85    -0.624 OA
ATOM    203  OP1  DT D  12      32.081  37.207  14.347  1.00 29.91    -0.624 OA
BRANCH 201 204
ATOM    204  O5'  DT D  12      34.246  36.070  14.949  1.00 28.66    -0.268 OA
BRANCH 204 205
ATOM    205  C5'  DT D  12      34.396  35.425  16.173  1.00 29.00     0.187 C 
BRANCH 205 206
ATOM    206  C4'  DT D  12      33.706  34.100  16.158  1.00 28.07     0.175 C 
ATOM    207  C3'  DT D  12      34.583  32.867  16.082  1.00 29.44     0.161 C 
ATOM    208  C2'  DT D  12      34.166  32.207  14.775  1.00 29.37     0.087 C 
ATOM    209  C1'  DT D  12      32.728  32.713  14.582  1.00 27.26     0.211 C 
ATOM    210  O4'  DT D  12      32.733  34.009  15.105  1.00 26.37    -0.333 OA
BRANCH 207 211
ATOM    211  O3'  DT D  12      34.141  32.173  17.219  1.00 31.26    -0.271 OA
BRANCH 211 212
ATOM    212  P    DA D  13      35.116  31.902  18.442  1.00 34.05     0.410 P 
ATOM    213  OP2  DA D  13      36.348  31.219  17.944  1.00 31.89    -0.624 OA
ATOM    214  OP1  DA D  13      35.203  33.219  19.089  1.00 33.32    -0.624 OA
BRANCH 212 215
ATOM    215  O5'  DA D  13      34.204  30.970  19.340  1.00 31.02    -0.268 OA
BRANCH 215 216
ATOM    216  C5'  DA D  13      32.789  30.965  19.157  1.00 27.53     0.187 C 
BRANCH 216 217
ATOM    217  C4'  DA D  13      32.156  29.967  20.094  1.00 25.33     0.175 C 
ATOM    218  O4'  DA D  13      33.060  29.616  21.172  1.00 22.92    -0.333 OA
ATOM    219  C1'  DA D  13      32.475  29.912  22.443  1.00 20.98     0.210 C 
ATOM    220  C2'  DA D  13      31.326  30.891  22.157  1.00 23.30     0.087 C 
ATOM    221  C3'  DA D  13      30.871  30.466  20.768  1.00 26.45     0.161 C 
BRANCH 219 222
ATOM    222  N9   DA D  13      33.542  30.457  23.271  1.00 17.31    -0.272 N 
ATOM    223  C8   DA D  13      34.127  29.866  24.336  1.00 17.58     0.182 A 
ATOM    224  N7   DA D  13      34.974  30.628  24.976  1.00 17.72    -0.219 NA
ATOM    225  C5   DA D  13      34.986  31.793  24.255  1.00 14.33     0.155 A 
ATOM    226  C6   DA D  13      35.687  33.001  24.394  1.00 14.45     0.206 A 
ATOM    227  C4   DA D  13      34.108  31.705  23.179  1.00 15.76     0.170 A 
ATOM    228  N6   DA D  13      36.555  33.280  25.408  1.00 15.52    -0.125 N 
ATOM    229  N1   DA D  13      35.470  33.934  23.468  1.00 14.59    -0.202 NA
ATOM    230  C2   DA D  13      34.582  33.713  22.490  1.00 15.74     0.202 A 
ATOM    231  N3   DA D  13      33.837  32.640  22.271  1.00 15.60    -0.205 NA
ENDBRANCH 219 222
BRANCH 221 232
ATOM    232  O3'  DA D  13      29.969  29.384  20.872  1.00 30.43    -0.271 OA
BRANCH 232 233
ATOM    233  P    DA D  14      28.420  29.636  20.596  1.00 32.07     0.410 P 
ATOM    234  OP2  DA D  14      27.961  28.678  19.602  1.00 33.16    -0.624 OA
ATOM    235  OP1  DA D  14      27.781  29.700  21.938  1.00 33.96    -0.624 OA
BRANCH 233 236
ATOM    236  O5'  DA D  14      28.417  31.092  20.006  1.00 31.87    -0.268 OA
BRANCH 236 237
ATOM    237  C5'  DA D  14      27.268  31.901  20.196  1.00 30.81     0.187 C 
BRANCH 237 238
ATOM    238  C4'  DA D  14      27.648  33.347  20.024  1.00 31.39     0.175 C 
ATOM    239  O4'  DA D  14      26.867  34.174  20.925  1.00 30.66    -0.333 OA
ATOM    240  C1'  DA D  14      27.759  34.983  21.667  1.00 28.20     0.210 C 
ATOM    241  C2'  DA D  14      29.036  34.174  21.779  1.00 29.16     0.087 C 
ATOM    242  C3'  DA D  14      29.107  33.624  20.368  1.00 31.09     0.161 C 
BRANCH 240 243
ATOM    243  N9   DA D  14      27.119  35.344  22.915  1.00 24.41    -0.272 N 
ATOM    244  C4   DA D  14      26.107  36.261  22.974  1.00 21.62     0.170 A 
ATOM    245  N3   DA D  14      25.532  36.892  21.926  1.00 18.94    -0.205 NA
ATOM    246  C5   DA D  14      25.839  36.428  24.306  1.00 22.12     0.155 A 
ATOM    247  C2   DA D  14      24.627  37.790  22.368  1.00 18.83     0.202 A 
ATOM    248  N1   DA D  14      24.276  38.038  23.612  1.00 18.79    -0.202 NA
ATOM    249  C6   DA D  14      24.867  37.344  24.628  1.00 19.52     0.206 A 
ATOM    250  N6   DA D  14      24.489  37.557  25.872  1.00 21.07    -0.125 N 
ATOM    251  N7   DA D  14      26.647  35.603  25.089  1.00 24.53    -0.219 NA
ATOM    252  C8   DA D  14      27.371  34.960  24.205  1.00 24.70     0.182 A 
ENDBRANCH 240 243
BRANCH 242 253
ATOM    253  O3'  DA D  14      29.525  34.629  19.471  1.00 31.14    -0.271 OA
BRANCH 253 254
ATOM    254  P    DC D  15      30.905  34.473  18.662  1.00 30.59     0.410 P 
ATOM    255  OP1  DC D  15      30.667  33.394  17.661  1.00 31.75    -0.624 OA
ATOM    256  OP2  DC D  15      32.096  34.420  19.563  1.00 29.87    -0.624 OA
BRANCH 254 257
ATOM    257  O5'  DC D  15      30.885  35.862  17.865  1.00 30.76    -0.268 OA
BRANCH 257 258
ATOM    258  C5'  DC D  15      29.859  36.108  16.865  1.00 28.28     0.187 C 
BRANCH 258 259
ATOM    259  C4'  DC D  15      29.220  37.471  17.054  1.00 28.15     0.175 C 
ATOM    260  O4'  DC D  15      28.701  37.633  18.395  1.00 23.18    -0.333 OA
ATOM    261  C1'  DC D  15      29.269  38.781  19.025  1.00 22.58     0.211 C 
ATOM    262  C2'  DC D  15      30.485  39.160  18.195  1.00 24.52     0.087 C 
ATOM    263  C3'  DC D  15      30.118  38.673  16.806  1.00 28.37     0.161 C 
BRANCH 261 264
ATOM    264  N1   DC D  15      29.639  38.392  20.388  1.00 18.64    -0.256 N 
ATOM    265  C6   DC D  15      30.813  37.731  20.629  1.00 16.47     0.085 A 
ATOM    266  C5   DC D  15      31.125  37.298  21.847  1.00 15.01     0.060 A 
ATOM    267  C4   DC D  15      30.163  37.543  22.897  1.00 13.33     0.190 A 
ATOM    268  N3   DC D  15      29.062  38.257  22.678  1.00 13.89    -0.171 NA
ATOM    269  N4   DC D  15      30.360  37.035  24.099  1.00 15.28    -0.127 N 
ATOM    270  C2   DC D  15      28.758  38.686  21.451  1.00 18.12     0.353 A 
ATOM    271  O2   DC D  15      27.710  39.321  21.198  1.00 20.47    -0.244 OA
ENDBRANCH 261 264
BRANCH 263 272
ATOM    272  O3'  DC D  15      29.389  39.693  16.140  1.00 31.34    -0.271 OA
BRANCH 272 273
ATOM    273  P    DG D  16      30.131  40.596  15.068  1.00 32.78     0.410 P 
ATOM    274  OP1  DG D  16      31.597  40.416  15.281  1.00 34.59    -0.624 OA
ATOM    275  OP2  DG D  16      29.529  41.950  15.151  1.00 31.45    -0.624 OA
BRANCH 273 276
ATOM    276  O5'  DG D  16      29.697  39.944  13.691  1.00 31.83    -0.268 OA
BRANCH 276 277
ATOM    277  C5'  DG D  16      29.468  40.751  12.546  1.00 31.48     0.187 C 
BRANCH 277 278
ATOM    278  C4'  DG D  16      29.397  39.874  11.322  1.00 29.56     0.178 C 
ATOM    279  C3'  DG D  16      28.017  39.814  10.654  1.00 29.50     0.186 C 
ATOM    280  C2'  DG D  16      27.474  38.471  11.121  1.00 28.21     0.090 C 
ATOM    281  O3'  DG D  16      28.199  39.739   9.222  1.00 31.52    -0.221 OA
ATOM    282  C1'  DG D  16      28.742  37.660  11.112  1.00 24.75     0.210 C 
ATOM    283  O4'  DG D  16      29.713  38.511  11.677  1.00 27.49    -0.333 OA
BRANCH 282 284
ATOM    284  N9   DG D  16      28.716  36.438  11.895  1.00 21.33    -0.271 N 
ATOM    285  C4   DG D  16      28.238  35.231  11.471  1.00 19.88     0.188 A 
ATOM    286  N3   DG D  16      27.744  34.963  10.231  1.00 18.33    -0.038 NA
ATOM    287  C5   DG D  16      28.364  34.389  12.552  1.00 17.85     0.176 A 
ATOM    288  C2   DG D  16      27.348  33.727  10.115  1.00 15.82     0.773 A 
ATOM    289  N1   DG D  16      27.409  32.809  11.156  1.00 16.33    -0.016 NA
ATOM    290  N2   DG D  16      26.858  33.272   8.919  1.00 16.23     0.062 N 
ATOM    291  C6   DG D  16      27.916  33.060  12.427  1.00 15.94     0.316 A 
ATOM    292  O6   DG D  16      27.913  32.132  13.282  1.00 18.70    -0.263 OA
ATOM    293  N7   DG D  16      28.963  35.051  13.618  1.00 18.48    -0.217 NA
ATOM    294  C8   DG D  16      29.142  36.267  13.185  1.00 19.50     0.182 A 
ENDBRANCH 282 284
ENDBRANCH 277 278
ENDBRANCH 276 277
ENDBRANCH 273 276
ENDBRANCH 272 273
ENDBRANCH 263 272
ENDBRANCH 258 259
ENDBRANCH 257 258
ENDBRANCH 254 257
ENDBRANCH 253 254
ENDBRANCH 242 253
ENDBRANCH 237 238
ENDBRANCH 236 237
ENDBRANCH 233 236
ENDBRANCH 232 233
ENDBRANCH 221 232
ENDBRANCH 216 217
ENDBRANCH 215 216
ENDBRANCH 212 215
ENDBRANCH 211 212
ENDBRANCH 207 211
BRANCH 209 295
ATOM    295  N1   DT D  12      32.249  32.848  13.202  1.00 25.54    -0.256 N 
ATOM    296  C6   DT D  12      32.365  34.040  12.517  1.00 22.97     0.083 A 
ATOM    297  C5   DT D  12      31.876  34.236  11.277  1.00 22.23     0.053 A 
ATOM    298  C4   DT D  12      31.206  33.140  10.637  1.00 20.03     0.280 A 
ATOM    299  C7   DT D  12      31.998  35.519  10.520  1.00 23.27     0.038 C 
ATOM    300  O4   DT D  12      30.701  33.225   9.520  1.00 18.53    -0.265 OA
ATOM    301  N3   DT D  12      31.155  31.950  11.366  1.00 19.51    -0.153 NA
ATOM    302  C2   DT D  12      31.642  31.741  12.627  1.00 22.25     0.354 A 
ATOM    303  O2   DT D  12      31.547  30.665  13.207  1.00 24.24    -0.244 OA
ENDBRANCH 209 295
ENDBRANCH 205 206
ENDBRANCH 204 205
ENDBRANCH 201 204
ENDBRANCH 200 201
ENDBRANCH 196 200
BRANCH 198 304
ATOM    304  N9   DG D  11      37.695  39.157  11.584  1.00 15.12    -0.271 N 
ATOM    305  C8   DG D  11      38.773  39.863  12.064  1.00 13.13     0.182 A 
ATOM    306  N7   DG D  11      39.719  40.019  11.175  1.00 13.46    -0.217 NA
ATOM    307  C5   DG D  11      39.234  39.380  10.039  1.00 11.37     0.176 A 
ATOM    308  C6   DG D  11      39.814  39.261   8.765  1.00 10.16     0.316 A 
ATOM    309  C4   DG D  11      38.004  38.815  10.276  1.00 12.33     0.188 A 
ATOM    310  O6   DG D  11      40.848  39.756   8.373  1.00 10.86    -0.263 OA
ATOM    311  N1   DG D  11      39.017  38.482   7.913  1.00 10.07    -0.016 NA
ATOM    312  C2   DG D  11      37.786  37.929   8.256  1.00 11.41     0.773 A 
ATOM    313  N2   DG D  11      37.149  37.161   7.322  1.00 10.83     0.062 N 
ATOM    314  N3   DG D  11      37.221  38.098   9.438  1.00 11.83    -0.038 NA
ENDBRANCH 198 304
ENDBRANCH 194 195
ENDBRANCH 193 194
ENDBRANCH 190 193
ENDBRANCH 189 190
ENDBRANCH 185 189
BRANCH 187 315
ATOM    315  N9   DG D  10      35.949  38.517  19.824  1.00 11.23    -0.271 N 
ATOM    316  C8   DG D  10      35.092  37.574  20.363  1.00 12.20     0.182 A 
ATOM    317  N7   DG D  10      35.653  36.871  21.324  1.00 12.66    -0.217 NA
ATOM    318  C5   DG D  10      36.930  37.409  21.438  1.00 10.47     0.176 A 
ATOM    319  C4   DG D  10      37.123  38.424  20.528  1.00 10.52     0.188 A 
ATOM    320  C6   DG D  10      38.020  37.080  22.332  1.00 11.39     0.316 A 
ATOM    321  N3   DG D  10      38.219  39.185  20.345  1.00 10.98    -0.038 NA
ATOM    322  C2   DG D  10      39.219  38.828  21.143  1.00  8.78     0.773 A 
ATOM    323  N1   DG D  10      39.136  37.846  22.092  1.00  9.45    -0.016 NA
ATOM    324  N2   DG D  10      40.403  39.422  21.042  1.00 10.60     0.062 N 
ATOM    325  O6   DG D  10      38.050  36.239  23.262  1.00 10.46    -0.263 OA
ENDBRANCH 187 315
ENDBRANCH 183 184
ENDBRANCH 182 183
ENDBRANCH 179 182
ENDBRANCH 178 179
ENDBRANCH 168 178
ENDBRANCH   1 164
TORSDOF 92
ENDMDL
