REMARK WARNING: 32 MAX_TORS EXCEEDED!!!
REMARK  92 active torsions:
REMARK  status: ('A' for Active; 'I' for Inactive)
REMARK    1  A    between atoms: C5'_1  and  C4'_3 
REMARK    2  A    between atoms: C3'_5  and  O3'_6 
REMARK    3  A    between atoms: O3'_6  and  P_17 
REMARK    4  A    between atoms: C1'_8  and  N1_9 
REMARK    5  A    between atoms: P_17  and  O5'_19 
REMARK    6  A    between atoms: C5'_18  and  O5'_19 
REMARK    7  A    between atoms: C5'_18  and  C4'_20 
REMARK    8  A    between atoms: C3'_22  and  O3'_23 
REMARK    9  A    between atoms: O3'_23  and  P_39 
REMARK   10  A    between atoms: C1'_25  and  N9_36 
REMARK   11  A    between atoms: P_39  and  O5'_41 
REMARK   12  A    between atoms: C5'_40  and  O5'_41 
REMARK   13  A    between atoms: C5'_40  and  C4'_42 
REMARK   14  A    between atoms: C3'_44  and  O3'_45 
REMARK   15  A    between atoms: O3'_45  and  P_59 
REMARK   16  A    between atoms: C1'_47  and  N1_48 
REMARK   17  A    between atoms: P_59  and  O5'_61 
REMARK   18  A    between atoms: C5'_60  and  C4'_62 
REMARK   19  A    between atoms: C5'_60  and  O5'_61 
REMARK   20  A    between atoms: C3'_64  and  O3'_65 
REMARK   21  A    between atoms: O3'_65  and  P_79 
REMARK   22  A    between atoms: C1'_67  and  N1_68 
REMARK   23  A    between atoms: P_79  and  O5'_81 
REMARK   24  A    between atoms: C5'_80  and  C4'_82 
REMARK   25  A    between atoms: C5'_80  and  O5'_81 
REMARK   26  A    between atoms: C3'_84  and  O3'_85 
REMARK   27  A    between atoms: O3'_85  and  P_100 
REMARK   28  A    between atoms: C1'_87  and  N9_97 
REMARK   29  A    between atoms: P_100  and  O5'_102 
REMARK   30  A    between atoms: C5'_101  and  C4'_103 
REMARK   31  A    between atoms: C5'_101  and  O5'_102 
REMARK   32  A    between atoms: C3'_105  and  O3'_106 
REMARK   33  A    between atoms: O3'_106  and  P_119 
REMARK   34  A    between atoms: C1'_108  and  N1_109 
REMARK   35  A    between atoms: P_119  and  O5'_121 
REMARK   36  A    between atoms: C5'_120  and  O5'_121 
REMARK   37  A    between atoms: C5'_120  and  C4'_122 
REMARK   38  A    between atoms: C3'_124  and  O3'_125 
REMARK   39  A    between atoms: O3'_125  and  P_138 
REMARK   40  A    between atoms: C1'_127  and  N1_128 
REMARK   41  A    between atoms: P_138  and  O5'_140 
REMARK   42  A    between atoms: C5'_139  and  C4'_141 
REMARK   43  A    between atoms: C5'_139  and  O5'_140 
REMARK   44  A    between atoms: C3'_143  and  O3'_144 
REMARK   45  A    between atoms: O3'_144  and  P_159 
REMARK   46  A    between atoms: C1'_146  and  N9_156 
REMARK   47  A    between atoms: P_159  and  O5'_161 
REMARK   48  A    between atoms: C5'_160  and  O5'_161 
REMARK   49  A    between atoms: C5'_160  and  C4'_162 
REMARK   50  A    between atoms: C3'_164  and  O3'_165 
REMARK   51  A    between atoms: O3'_165  and  P_179 
REMARK   52  A    between atoms: C1'_167  and  N1_168 
REMARK   53  A    between atoms: P_179  and  O5'_181 
REMARK   54  A    between atoms: C5'_180  and  C4'_182 
REMARK   55  A    between atoms: C5'_180  and  O5'_181 
REMARK   56  A    between atoms: C3'_184  and  O3'_185 
REMARK   57  A    between atoms: O3'_185  and  P_201 
REMARK   58  A    between atoms: C1'_187  and  N9_198 
REMARK   59  A    between atoms: P_201  and  O5'_203 
REMARK   60  A    between atoms: C5'_202  and  O5'_203 
REMARK   61  A    between atoms: C5'_202  and  C4'_204 
REMARK   62  A    between atoms: C3'_206  and  O3'_207 
REMARK   63  A    between atoms: O3'_207  and  P_223 
REMARK   64  A    between atoms: C1'_209  and  N9_220 
REMARK   65  A    between atoms: P_223  and  O5'_225 
REMARK   66  A    between atoms: C5'_224  and  O5'_225 
REMARK   67  A    between atoms: C5'_224  and  C4'_226 
REMARK   68  A    between atoms: C3'_228  and  O3'_229 
REMARK   69  A    between atoms: O3'_229  and  P_243 
REMARK   70  A    between atoms: C1'_231  and  N1_232 
REMARK   71  A    between atoms: P_243  and  O5'_245 
REMARK   72  A    between atoms: C5'_244  and  C4'_246 
REMARK   73  A    between atoms: C5'_244  and  O5'_245 
REMARK   74  A    between atoms: C3'_248  and  O3'_249 
REMARK   75  A    between atoms: O3'_249  and  P_264 
REMARK   76  A    between atoms: C1'_251  and  N9_261 
REMARK   77  A    between atoms: P_264  and  O5'_266 
REMARK   78  A    between atoms: C5'_265  and  C4'_267 
REMARK   79  A    between atoms: C5'_265  and  O5'_266 
REMARK   80  A    between atoms: C3'_269  and  O3'_270 
REMARK   81  A    between atoms: O3'_270  and  P_285 
REMARK   82  A    between atoms: C1'_272  and  N9_282 
REMARK   83  A    between atoms: P_285  and  O5'_287 
REMARK   84  A    between atoms: C5'_286  and  O5'_287 
REMARK   85  A    between atoms: C5'_286  and  C4'_288 
REMARK   86  A    between atoms: C3'_290  and  O3'_291 
REMARK   87  A    between atoms: O3'_291  and  P_304 
REMARK   88  A    between atoms: C1'_293  and  N1_294 
REMARK   89  A    between atoms: P_304  and  O5'_306 
REMARK   90  A    between atoms: C5'_305  and  C4'_307 
REMARK   91  A    between atoms: C5'_305  and  O5'_306 
REMARK   92  A    between atoms: C1'_312  and  N9_323 
ROOT
HETATM    1  C5' BRU D   9      48.384  16.069  48.624  1.00 14.48     0.187 C 
ENDROOT
BRANCH   1   2
HETATM    2  O5' BRU D   9      48.146  17.420  48.969  1.00 12.82    -0.268 OA
BRANCH   2   3
HETATM    3  P   BRU D   9      47.003  18.240  48.245  1.00 11.11     0.410 P 
HETATM    4  OP1 BRU D   9      45.757  17.396  48.128  1.00 14.53    -0.624 OA
HETATM    5  OP2 BRU D   9      46.949  19.529  48.985  1.00 12.75    -0.624 OA
BRANCH   3   6
ATOM      6  O3'  DA D   8      47.525  18.347  46.753  1.00 11.43    -0.271 OA
BRANCH   6   7
ATOM      7  C3'  DA D   8      48.534  19.290  46.449  1.00 10.57     0.161 C 
ATOM      8  C4'  DA D   8      48.273  19.871  45.063  1.00 11.52     0.175 C 
ATOM      9  O4'  DA D   8      49.568  20.221  44.546  1.00 11.40    -0.333 OA
ATOM     10  C1'  DA D   8      50.590  19.473  45.226  1.00 11.23     0.210 C 
ATOM     11  C2'  DA D   8      49.891  18.623  46.285  1.00 12.23     0.087 C 
BRANCH   8  12
ATOM     12  C5'  DA D   8      47.383  21.087  45.017  1.00 13.06     0.187 C 
BRANCH  12  13
ATOM     13  O5'  DA D   8      47.939  22.130  45.779  1.00 11.03    -0.268 OA
BRANCH  13  14
ATOM     14  P    DA D   8      47.405  23.636  45.563  1.00 12.25     0.410 P 
ATOM     15  OP2  DA D   8      48.225  24.506  46.480  1.00 11.74    -0.624 OA
ATOM     16  OP1  DA D   8      45.938  23.665  45.666  1.00 15.55    -0.624 OA
BRANCH  14  17
ATOM     17  O3'  DC D   7      47.774  23.986  44.045  1.00 12.10    -0.271 OA
BRANCH  17  18
ATOM     18  C3'  DC D   7      49.147  24.262  43.703  1.00 11.74     0.161 C 
ATOM     19  C2'  DC D   7      49.863  23.078  43.056  1.00 11.76     0.087 C 
ATOM     20  C1'  DC D   7      50.932  23.757  42.193  1.00 12.42     0.211 C 
ATOM     21  O4'  DC D   7      50.447  25.068  41.923  1.00 12.34    -0.333 OA
ATOM     22  C4'  DC D   7      49.175  25.289  42.592  1.00 11.56     0.175 C 
BRANCH  20  23
ATOM     23  N1   DC D   7      52.161  23.915  43.006  1.00 11.09    -0.256 N 
ATOM     24  C2   DC D   7      52.975  22.790  43.153  1.00  9.80     0.353 A 
ATOM     25  O2   DC D   7      52.567  21.736  42.632  1.00 10.91    -0.244 OA
ATOM     26  N3   DC D   7      54.139  22.859  43.844  1.00  9.76    -0.171 NA
ATOM     27  C4   DC D   7      54.488  23.990  44.435  1.00 11.68     0.190 A 
ATOM     28  N4   DC D   7      55.660  24.025  45.131  1.00 10.83    -0.127 N 
ATOM     29  C5   DC D   7      53.659  25.177  44.336  1.00 10.32     0.060 A 
ATOM     30  C6   DC D   7      52.510  25.089  43.612  1.00 11.95     0.085 A 
ENDBRANCH  20  23
BRANCH  22  31
ATOM     31  C5'  DC D   7      49.088  26.721  43.041  1.00 14.18     0.187 C 
BRANCH  31  32
ATOM     32  O5'  DC D   7      48.629  27.514  41.938  1.00 16.43    -0.268 OA
BRANCH  32  33
ATOM     33  P    DC D   7      49.497  28.757  41.464  1.00 18.54     0.410 P 
ATOM     34  OP1  DC D   7      48.762  29.416  40.395  1.00 22.71    -0.624 OA
ATOM     35  OP2  DC D   7      49.902  29.468  42.674  1.00 19.79    -0.624 OA
BRANCH  33  36
ATOM     36  O3'  DC D   6      50.723  28.039  40.698  1.00 17.13    -0.271 OA
BRANCH  36  37
ATOM     37  C3'  DC D   6      51.952  28.708  40.530  1.00 14.94     0.161 C 
ATOM     38  C4'  DC D   6      52.475  28.349  39.144  1.00 15.77     0.175 C 
ATOM     39  O4'  DC D   6      53.366  27.240  39.359  1.00 13.81    -0.333 OA
ATOM     40  C1'  DC D   6      53.270  26.829  40.694  1.00 12.86     0.211 C 
ATOM     41  C2'  DC D   6      52.973  28.089  41.466  1.00 14.65     0.087 C 
BRANCH  38  42
ATOM     42  C5'  DC D   6      53.209  29.485  38.475  1.00 18.13     0.187 C 
BRANCH  42  43
ATOM     43  O5'  DC D   6      54.117  30.074  39.401  1.00 19.27    -0.268 OA
BRANCH  43  44
ATOM     44  P    DC D   6      55.010  31.334  38.970  1.00 19.84     0.410 P 
ATOM     45  OP1  DC D   6      54.104  32.178  38.149  1.00 24.35    -0.624 OA
ATOM     46  OP2  DC D   6      55.628  31.887  40.174  1.00 20.92    -0.624 OA
BRANCH  44  47
ATOM     47  O3'  DA D   5      56.065  30.664  37.983  1.00 19.93    -0.271 OA
BRANCH  47  48
ATOM     48  C3'  DA D   5      57.336  30.236  38.468  1.00 16.89     0.161 C 
ATOM     49  C4'  DA D   5      58.089  29.705  37.252  1.00 17.32     0.175 C 
ATOM     50  O4'  DA D   5      57.818  28.300  37.217  1.00 18.24    -0.333 OA
ATOM     51  C1'  DA D   5      57.074  27.910  38.386  1.00 15.77     0.210 C 
ATOM     52  C2'  DA D   5      57.236  29.027  39.396  1.00 16.34     0.087 C 
BRANCH  49  53
ATOM     53  C5'  DA D   5      59.569  30.017  37.221  1.00 17.61     0.187 C 
BRANCH  53  54
ATOM     54  O5'  DA D   5      60.147  29.718  38.489  1.00 19.33    -0.268 OA
BRANCH  54  55
ATOM     55  P    DA D   5      61.633  30.154  38.800  1.00 20.74     0.410 P 
ATOM     56  OP2  DA D   5      62.013  29.810  40.190  1.00 23.47    -0.624 OA
ATOM     57  OP1  DA D   5      61.777  31.561  38.302  1.00 23.99    -0.624 OA
BRANCH  55  58
ATOM     58  O3'  DT D   4      62.481  29.282  37.738  1.00 19.59    -0.271 OA
BRANCH  58  59
ATOM     59  C3'  DT D   4      63.158  28.069  38.132  1.00 18.10     0.161 C 
ATOM     60  C4'  DT D   4      63.997  27.581  36.940  1.00 15.82     0.175 C 
ATOM     61  O4'  DT D   4      63.273  26.483  36.354  1.00 16.38    -0.333 OA
ATOM     62  C1'  DT D   4      61.996  26.321  36.964  1.00 15.63     0.211 C 
ATOM     63  C2'  DT D   4      62.170  26.925  38.368  1.00 16.56     0.087 C 
BRANCH  60  64
ATOM     64  C5'  DT D   4      65.393  27.085  37.255  1.00 17.08     0.187 C 
BRANCH  64  65
ATOM     65  O5'  DT D   4      65.339  26.082  38.290  1.00 15.07    -0.268 OA
BRANCH  65  66
ATOM     66  P    DT D   4      66.693  25.496  38.899  1.00 15.11     0.410 P 
ATOM     67  OP1  DT D   4      67.533  26.649  39.415  1.00 18.00    -0.624 OA
ATOM     68  OP2  DT D   4      66.271  24.412  39.835  1.00 17.03    -0.624 OA
BRANCH  66  69
HETATM   69  O3' BRU D   3      67.443  24.977  37.629  1.00 15.24    -0.271 OA
BRANCH  69  70
HETATM   70  C3' BRU D   3      67.256  23.645  37.138  1.00 13.22     0.161 C 
HETATM   71  C4' BRU D   3      67.861  23.681  35.735  1.00 14.89     0.175 C 
HETATM   72  O4' BRU D   3      66.887  23.093  34.851  1.00 16.05    -0.333 OA
HETATM   73  C1' BRU D   3      65.606  23.389  35.396  1.00 15.34     0.211 C 
HETATM   74  C2' BRU D   3      65.807  23.191  36.906  1.00 12.90     0.087 C 
BRANCH  71  75
HETATM   75  C5' BRU D   3      69.231  23.092  35.518  1.00 17.61     0.187 C 
BRANCH  75  76
HETATM   76  O5' BRU D   3      69.290  21.749  35.957  1.00 15.66    -0.268 OA
BRANCH  76  77
HETATM   77  P   BRU D   3      70.534  20.869  35.475  1.00 16.77     0.410 P 
HETATM   78  OP1 BRU D   3      71.738  21.739  35.605  1.00 18.57    -0.624 OA
HETATM   79  OP2 BRU D   3      70.479  19.540  36.145  1.00 18.18    -0.624 OA
BRANCH  77  80
ATOM     80  O3'  DG D   2      70.289  20.647  33.918  1.00 17.32    -0.271 OA
BRANCH  80  81
ATOM     81  C3'  DG D   2      69.581  19.514  33.442  1.00 15.47     0.161 C 
ATOM     82  C2'  DG D   2      68.070  19.749  33.579  1.00 16.87     0.087 C 
ATOM     83  C1'  DG D   2      67.784  20.685  32.406  1.00 16.11     0.210 C 
ATOM     84  O4'  DG D   2      68.720  20.316  31.385  1.00 18.37    -0.333 OA
ATOM     85  C4'  DG D   2      69.805  19.533  31.929  1.00 18.34     0.175 C 
BRANCH  83  86
ATOM     86  N9   DG D   2      66.453  20.563  31.813  1.00 16.03    -0.272 N 
ATOM     87  C8   DG D   2      65.775  19.410  31.497  1.00 14.57     0.182 A 
ATOM     88  N7   DG D   2      64.636  19.626  30.882  1.00 16.34    -0.217 NA
ATOM     89  C5   DG D   2      64.561  21.027  30.795  1.00 13.99     0.175 A 
ATOM     90  C6   DG D   2      63.563  21.860  30.206  1.00 12.33     0.302 A 
ATOM     91  C4   DG D   2      65.658  21.616  31.400  1.00 12.94     0.172 A 
ATOM     92  O6   DG D   2      62.552  21.503  29.629  1.00 15.71    -0.263 OA
ATOM     93  N1   DG D   2      63.861  23.199  30.333  1.00 12.85    -0.174 NA
ATOM     94  C2   DG D   2      64.978  23.709  30.966  1.00 12.30     0.242 A 
ATOM     95  N2   DG D   2      65.098  25.089  31.026  1.00 15.13    -0.059 NA
ATOM     96  N3   DG D   2      65.936  22.932  31.534  1.00 14.89    -0.195 NA
ENDBRANCH  83  86
BRANCH  85  97
ATOM     97  C5'  DG D   2      69.868  18.183  31.256  1.00 20.11     0.187 C 
BRANCH  97  98
ATOM     98  O5'  DG D   2      68.691  17.430  31.527  1.00 21.44    -0.268 OA
BRANCH  98  99
ATOM     99  P    DG D   2      68.066  16.478  30.426  1.00 23.19     0.410 P 
ATOM    100  OP1  DG D   2      69.235  15.739  29.868  1.00 25.33    -0.624 OA
ATOM    101  OP2  DG D   2      66.885  15.740  30.899  1.00 23.21    -0.624 OA
BRANCH  99 102
ATOM    102  O3'  DC D   1      67.539  17.460  29.277  1.00 26.59    -0.271 OA
BRANCH 102 103
ATOM    103  C3'  DC D   1      66.836  16.900  28.176  1.00 27.88     0.161 C 
ATOM    104  C2'  DC D   1      65.442  17.495  28.166  1.00 26.06     0.087 C 
ATOM    105  C1'  DC D   1      65.740  18.866  27.605  1.00 24.51     0.211 C 
ATOM    106  O4'  DC D   1      66.751  18.659  26.606  1.00 29.50    -0.333 OA
ATOM    107  C4'  DC D   1      67.467  17.449  26.903  1.00 29.48     0.178 C 
BRANCH 105 108
ATOM    108  N1   DC D   1      64.645  19.597  26.956  1.00 21.38    -0.256 N 
ATOM    109  C6   DC D   1      63.643  18.945  26.289  1.00 19.62     0.085 A 
ATOM    110  C5   DC D   1      62.696  19.635  25.622  1.00 19.43     0.060 A 
ATOM    111  C4   DC D   1      62.763  21.062  25.684  1.00 17.00     0.190 A 
ATOM    112  N4   DC D   1      61.849  21.811  25.066  1.00 18.52    -0.127 N 
ATOM    113  N3   DC D   1      63.730  21.698  26.364  1.00 17.32    -0.171 NA
ATOM    114  C2   DC D   1      64.676  20.987  26.994  1.00 18.49     0.353 A 
ATOM    115  O2   DC D   1      65.589  21.547  27.610  1.00 18.51    -0.244 OA
ENDBRANCH 105 108
BRANCH 107 116
ATOM    116  C5'  DC D   1      67.450  16.518  25.711  1.00 31.78     0.214 C 
ATOM    117  O5'  DC D   1      66.249  15.741  25.701  1.00 34.90    -0.218 OA
ENDBRANCH 107 116
ENDBRANCH 102 103
ENDBRANCH  99 102
ENDBRANCH  98  99
ENDBRANCH  97  98
ENDBRANCH  85  97
ENDBRANCH  80  81
ENDBRANCH  77  80
ENDBRANCH  76  77
ENDBRANCH  75  76
ENDBRANCH  71  75
BRANCH  73 118
HETATM  118  N1  BRU D   3      64.642  22.462  34.798  1.00 13.25    -0.255 N 
HETATM  119  C2  BRU D   3      63.529  22.956  34.082  1.00 11.90     0.354 A 
HETATM  120  O2  BRU D   3      63.300  24.144  33.956  1.00 16.11    -0.244 OA
HETATM  121  N3  BRU D   3      62.713  22.016  33.535  1.00 12.15    -0.153 NA
HETATM  122  C4  BRU D   3      62.885  20.689  33.592  1.00 12.48     0.291 A 
HETATM  123  O4  BRU D   3      62.071  19.883  33.098  1.00 16.38    -0.264 OA
HETATM  124  C5  BRU D   3      64.024  20.317  34.358  1.00 14.67     0.110 A 
HETATM  125  C6  BRU D   3      64.823  21.181  34.914  1.00 13.17     0.094 A 
HETATM  126 BR   BRU D   3      64.385  18.261  34.630  1.00 24.07    -0.043 Br
ENDBRANCH  73 118
ENDBRANCH  69  70
ENDBRANCH  66  69
ENDBRANCH  65  66
ENDBRANCH  64  65
ENDBRANCH  60  64
BRANCH  62 127
ATOM    127  N1   DT D   4      61.664  24.871  36.859  1.00 13.98    -0.256 N 
ATOM    128  C2   DT D   4      60.615  24.498  36.066  1.00 13.56     0.354 A 
ATOM    129  O2   DT D   4      59.920  25.335  35.493  1.00 16.57    -0.244 OA
ATOM    130  N3   DT D   4      60.404  23.131  35.935  1.00 12.35    -0.153 NA
ATOM    131  C4   DT D   4      61.164  22.129  36.531  1.00 11.46     0.280 A 
ATOM    132  O4   DT D   4      60.935  20.929  36.310  1.00 13.76    -0.265 OA
ATOM    133  C5   DT D   4      62.214  22.613  37.407  1.00 12.51     0.053 A 
ATOM    134  C7   DT D   4      63.037  21.619  38.157  1.00 14.43     0.038 C 
ATOM    135  C6   DT D   4      62.422  23.926  37.521  1.00 14.14     0.083 A 
ENDBRANCH  62 127
ENDBRANCH  58  59
ENDBRANCH  55  58
ENDBRANCH  54  55
ENDBRANCH  53  54
ENDBRANCH  49  53
BRANCH  51 136
ATOM    136  N9   DA D   5      57.656  26.622  38.788  1.00 14.16    -0.272 N 
ATOM    137  C4   DA D   5      57.246  25.385  38.341  1.00 14.21     0.170 A 
ATOM    138  C5   DA D   5      58.201  24.492  38.805  1.00 12.40     0.155 A 
ATOM    139  N3   DA D   5      56.172  25.086  37.600  1.00 13.46    -0.205 NA
ATOM    140  C6   DA D   5      58.036  23.145  38.487  1.00 12.04     0.206 A 
ATOM    141  N7   DA D   5      59.152  25.150  39.541  1.00 14.47    -0.219 NA
ATOM    142  N6   DA D   5      58.903  22.197  38.894  1.00 12.46    -0.125 N 
ATOM    143  N1   DA D   5      56.960  22.796  37.743  1.00 13.98    -0.202 NA
ATOM    144  C2   DA D   5      56.122  23.775  37.347  1.00 14.25     0.202 A 
ATOM    145  C8   DA D   5      58.766  26.406  39.535  1.00 14.09     0.182 A 
ENDBRANCH  51 136
ENDBRANCH  47  48
ENDBRANCH  44  47
ENDBRANCH  43  44
ENDBRANCH  42  43
ENDBRANCH  38  42
BRANCH  40 146
ATOM    146  N1   DC D   6      54.511  26.084  41.054  1.00 11.89    -0.256 N 
ATOM    147  C2   DC D   6      54.578  24.727  40.694  1.00 11.45     0.353 A 
ATOM    148  O2   DC D   6      53.688  24.277  40.004  1.00 12.57    -0.244 OA
ATOM    149  N3   DC D   6      55.624  23.968  41.116  1.00 11.17    -0.171 NA
ATOM    150  C4   DC D   6      56.600  24.524  41.826  1.00 11.08     0.190 A 
ATOM    151  N4   DC D   6      57.619  23.760  42.254  1.00 10.70    -0.127 N 
ATOM    152  C5   DC D   6      56.582  25.931  42.155  1.00 10.83     0.060 A 
ATOM    153  C6   DC D   6      55.524  26.655  41.749  1.00 11.79     0.085 A 
ENDBRANCH  40 146
ENDBRANCH  36  37
ENDBRANCH  33  36
ENDBRANCH  32  33
ENDBRANCH  31  32
ENDBRANCH  22  31
ENDBRANCH  17  18
ENDBRANCH  14  17
ENDBRANCH  13  14
ENDBRANCH  12  13
ENDBRANCH   8  12
BRANCH  10 154
ATOM    154  N9   DA D   8      51.467  20.445  45.879  1.00 10.83    -0.272 N 
ATOM    155  C4   DA D   8      52.696  20.132  46.404  1.00  9.99     0.170 A 
ATOM    156  N3   DA D   8      53.293  18.910  46.427  1.00 10.21    -0.205 NA
ATOM    157  C5   DA D   8      53.218  21.321  46.863  1.00 10.31     0.155 A 
ATOM    158  C2   DA D   8      54.484  18.980  46.968  1.00 10.39     0.202 A 
ATOM    159  N1   DA D   8      55.119  20.063  47.470  1.00 11.14    -0.202 NA
ATOM    160  C6   DA D   8      54.516  21.272  47.392  1.00 10.09     0.206 A 
ATOM    161  N6   DA D   8      55.208  22.332  47.783  1.00 11.37    -0.125 N 
ATOM    162  N7   DA D   8      52.299  22.368  46.669  1.00 10.47    -0.219 NA
ATOM    163  C8   DA D   8      51.274  21.778  46.094  1.00 11.39     0.182 A 
ENDBRANCH  10 154
ENDBRANCH   6   7
ENDBRANCH   3   6
ENDBRANCH   2   3
ENDBRANCH   1   2
BRANCH   1 164
HETATM  164  C4' BRU D   9      49.735  15.626  49.138  1.00 14.07     0.175 C 
HETATM  165  O4' BRU D   9      50.762  16.511  48.599  1.00 13.32    -0.333 OA
HETATM  166  C1' BRU D   9      51.866  16.554  49.499  1.00 13.84     0.211 C 
HETATM  167  C2' BRU D   9      51.436  15.890  50.790  1.00 12.11     0.087 C 
HETATM  168  C3' BRU D   9      49.934  15.703  50.638  1.00 15.00     0.161 C 
BRANCH 166 169
HETATM  169  N1  BRU D   9      52.146  17.961  49.802  1.00 13.67    -0.255 N 
HETATM  170  C2  BRU D   9      53.369  18.285  50.269  1.00 11.22     0.354 A 
HETATM  171  O2  BRU D   9      54.206  17.435  50.475  1.00 13.50    -0.244 OA
HETATM  172  N3  BRU D   9      53.595  19.638  50.480  1.00 11.85    -0.153 NA
HETATM  173  C4  BRU D   9      52.701  20.609  50.262  1.00 10.30     0.291 A 
HETATM  174  O4  BRU D   9      53.019  21.822  50.382  1.00 12.93    -0.264 OA
HETATM  175  C5  BRU D   9      51.426  20.116  49.814  1.00 12.08     0.110 A 
HETATM  176  C6  BRU D   9      51.199  18.863  49.608  1.00 13.06     0.094 A 
HETATM  177 BR   BRU D   9      50.088  21.669  49.503  1.00 15.13    -0.043 Br
ENDBRANCH 166 169
BRANCH 168 178
HETATM  178  O3' BRU D   9      49.522  14.500  51.272  1.00 13.15    -0.271 OA
BRANCH 178 179
ATOM    179  P    DG D  10      49.201  14.551  52.819  1.00 14.52     0.410 P 
ATOM    180  OP2  DG D  10      48.573  15.847  53.240  1.00 14.92    -0.624 OA
ATOM    181  OP1  DG D  10      48.507  13.258  53.150  1.00 16.08    -0.624 OA
BRANCH 179 182
ATOM    182  O5'  DG D  10      50.650  14.556  53.530  1.00 14.63    -0.268 OA
BRANCH 182 183
ATOM    183  C5'  DG D  10      51.591  13.520  53.306  1.00 14.28     0.187 C 
BRANCH 183 184
ATOM    184  C4'  DG D  10      52.798  13.734  54.185  1.00 14.53     0.175 C 
ATOM    185  C3'  DG D  10      52.514  13.879  55.672  1.00 16.36     0.161 C 
ATOM    186  C2'  DG D  10      52.442  15.393  55.857  1.00 15.07     0.087 C 
ATOM    187  C1'  DG D  10      53.535  15.827  54.906  1.00 13.41     0.210 C 
ATOM    188  O4'  DG D  10      53.454  14.963  53.783  1.00 13.85    -0.333 OA
BRANCH 185 189
ATOM    189  O3'  DG D  10      53.658  13.302  56.305  1.00 20.48    -0.271 OA
BRANCH 189 190
ATOM    190  P    DG D  11      53.583  12.802  57.832  1.00 20.71     0.410 P 
ATOM    191  OP2  DG D  11      52.352  13.207  58.546  1.00 22.10    -0.624 OA
ATOM    192  OP1  DG D  11      54.016  11.380  57.817  1.00 24.32    -0.624 OA
BRANCH 190 193
ATOM    193  O5'  DG D  11      54.755  13.609  58.524  1.00 19.33    -0.268 OA
BRANCH 193 194
ATOM    194  C5'  DG D  11      56.095  13.401  58.094  1.00 18.66     0.187 C 
BRANCH 194 195
ATOM    195  C4'  DG D  11      57.020  14.224  58.954  1.00 18.71     0.175 C 
ATOM    196  C3'  DG D  11      56.698  14.128  60.431  1.00 19.69     0.161 C 
ATOM    197  C2'  DG D  11      55.757  15.300  60.649  1.00 18.26     0.087 C 
ATOM    198  C1'  DG D  11      56.386  16.344  59.734  1.00 15.98     0.210 C 
ATOM    199  O4'  DG D  11      56.980  15.639  58.656  1.00 17.85    -0.333 OA
BRANCH 196 200
ATOM    200  O3'  DG D  11      57.935  14.373  61.082  1.00 24.65    -0.271 OA
BRANCH 200 201
ATOM    201  P    DT D  12      58.196  13.757  62.496  1.00 28.19     0.410 P 
ATOM    202  OP2  DT D  12      57.102  12.893  62.994  1.00 27.85    -0.624 OA
ATOM    203  OP1  DT D  12      59.594  13.249  62.384  1.00 29.91    -0.624 OA
BRANCH 201 204
ATOM    204  O5'  DT D  12      58.151  15.003  63.471  1.00 28.66    -0.268 OA
BRANCH 204 205
ATOM    205  C5'  DT D  12      59.327  15.731  63.625  1.00 29.00     0.187 C 
BRANCH 205 206
ATOM    206  C4'  DT D  12      59.044  17.065  64.236  1.00 28.07     0.175 C 
ATOM    207  C3'  DT D  12      58.479  17.073  65.642  1.00 29.44     0.161 C 
ATOM    208  C2'  DT D  12      57.122  17.745  65.482  1.00 29.37     0.087 C 
ATOM    209  C1'  DT D  12      57.315  18.605  64.224  1.00 27.26     0.211 C 
ATOM    210  O4'  DT D  12      58.179  17.864  63.414  1.00 26.37    -0.333 OA
BRANCH 207 211
ATOM    211  O3'  DT D  12      59.425  17.883  66.289  1.00 31.26    -0.271 OA
BRANCH 211 212
ATOM    212  P    DA D  13      59.414  18.051  67.868  1.00 34.05     0.410 P 
ATOM    213  OP2  DA D  13      58.262  17.286  68.433  1.00 31.89    -0.624 OA
ATOM    214  OP1  DA D  13      60.793  17.707  68.243  1.00 33.32    -0.624 OA
BRANCH 212 215
ATOM    215  O5'  DA D  13      59.244  19.620  67.992  1.00 31.02    -0.268 OA
BRANCH 215 216
ATOM    216  C5'  DA D  13      60.062  20.491  67.212  1.00 27.53     0.187 C 
BRANCH 216 217
ATOM    217  C4'  DA D  13      59.514  21.895  67.271  1.00 25.33     0.175 C 
ATOM    218  O4'  DA D  13      58.319  22.024  66.461  1.00 22.92    -0.333 OA
ATOM    219  C1'  DA D  13      57.211  22.459  67.254  1.00 20.98     0.210 C 
ATOM    220  C2'  DA D  13      57.607  22.183  68.712  1.00 23.30     0.087 C 
ATOM    221  C3'  DA D  13      59.119  22.355  68.680  1.00 26.45     0.161 C 
BRANCH 219 222
ATOM    222  N9   DA D  13      56.052  21.710  66.789  1.00 17.31    -0.272 N 
ATOM    223  C8   DA D  13      55.727  20.437  67.105  1.00 17.58     0.182 A 
ATOM    224  N7   DA D  13      54.699  19.966  66.450  1.00 17.72    -0.219 NA
ATOM    225  C5   DA D  13      54.285  21.019  65.677  1.00 14.33     0.155 A 
ATOM    226  C6   DA D  13      53.233  21.183  64.762  1.00 14.45     0.206 A 
ATOM    227  C4   DA D  13      55.108  22.122  65.881  1.00 15.76     0.170 A 
ATOM    228  N6   DA D  13      52.355  20.202  64.408  1.00 15.52    -0.125 N 
ATOM    229  N1   DA D  13      53.104  22.385  64.201  1.00 14.59    -0.202 NA
ATOM    230  C2   DA D  13      53.984  23.354  64.485  1.00 15.74     0.202 A 
ATOM    231  N3   DA D  13      55.030  23.315  65.296  1.00 15.60    -0.205 NA
ENDBRANCH 219 222
BRANCH 221 232
ATOM    232  O3'  DA D  13      59.446  23.723  68.815  1.00 30.43    -0.271 OA
BRANCH 232 233
ATOM    233  P    DA D  14      59.184  24.449  70.209  1.00 32.07     0.410 P 
ATOM    234  OP2  DA D  14      59.138  23.442  71.258  1.00 33.16    -0.624 OA
ATOM    235  OP1  DA D  14      60.170  25.561  70.270  1.00 33.96    -0.624 OA
BRANCH 233 236
ATOM    236  O5'  DA D  14      57.767  25.090  69.993  1.00 31.87    -0.268 OA
BRANCH 236 237
ATOM    237  C5'  DA D  14      57.626  26.122  69.031  1.00 30.81     0.187 C 
BRANCH 237 238
ATOM    238  C4'  DA D  14      56.196  26.589  69.012  1.00 31.39     0.175 C 
ATOM    239  O4'  DA D  14      55.353  25.577  68.404  1.00 30.66    -0.333 OA
ATOM    240  C1'  DA D  14      54.285  25.300  69.290  1.00 28.20     0.210 C 
ATOM    241  C2'  DA D  14      54.841  25.549  70.678  1.00 29.16     0.087 C 
ATOM    242  C3'  DA D  14      55.626  26.818  70.408  1.00 31.09     0.161 C 
BRANCH 240 243
ATOM    243  N9   DA D  14      53.806  23.959  69.024  1.00 24.41    -0.272 N 
ATOM    244  C4   DA D  14      52.800  23.711  68.132  1.00 21.62     0.170 A 
ATOM    245  N3   DA D  14      52.173  24.621  67.353  1.00 18.94    -0.205 NA
ATOM    246  C5   DA D  14      52.543  22.370  68.232  1.00 22.12     0.155 A 
ATOM    247  C2   DA D  14      51.176  24.029  66.663  1.00 18.83     0.202 A 
ATOM    248  N1   DA D  14      50.836  22.757  66.666  1.00 18.79    -0.202 NA
ATOM    249  C6   DA D  14      51.528  21.878  67.447  1.00 19.52     0.206 A 
ATOM    250  N6   DA D  14      51.220  20.597  67.422  1.00 21.07    -0.125 N 
ATOM    251  N7   DA D  14      53.397  21.761  69.152  1.00 24.53    -0.219 NA
ATOM    252  C8   DA D  14      54.146  22.752  69.572  1.00 24.70     0.182 A 
ENDBRANCH 240 243
BRANCH 242 253
ATOM    253  O3'  DA D  14      54.752  27.918  70.287  1.00 31.14    -0.271 OA
BRANCH 253 254
ATOM    254  P    DC D  15      54.224  28.684  71.597  1.00 30.59     0.410 P 
ATOM    255  OP1  DC D  15      55.296  29.656  71.957  1.00 31.75    -0.624 OA
ATOM    256  OP2  DC D  15      53.674  27.749  72.626  1.00 29.87    -0.624 OA
BRANCH 254 257
ATOM    257  O5'  DC D  15      53.034  29.525  70.932  1.00 30.76    -0.268 OA
BRANCH 257 258
ATOM    258  C5'  DC D  15      53.215  30.121  69.619  1.00 28.28     0.187 C 
BRANCH 258 259
ATOM    259  C4'  DC D  15      51.911  30.154  68.844  1.00 28.15     0.175 C 
ATOM    260  O4'  DC D  15      51.487  28.826  68.460  1.00 23.18    -0.333 OA
ATOM    261  C1'  DC D  15      50.175  28.549  68.951  1.00 22.58     0.211 C 
ATOM    262  C2'  DC D  15      49.892  29.598  70.014  1.00 24.52     0.087 C 
ATOM    263  C3'  DC D  15      50.723  30.782  69.558  1.00 28.37     0.161 C 
BRANCH 261 264
ATOM    264  N1   DC D  15      50.197  27.196  69.512  1.00 18.64    -0.256 N 
ATOM    265  C6   DC D  15      51.112  26.854  70.471  1.00 16.47     0.085 A 
ATOM    266  C5   DC D  15      51.200  25.610  70.932  1.00 15.01     0.060 A 
ATOM    267  C4   DC D  15      50.298  24.635  70.363  1.00 13.33     0.190 A 
ATOM    268  N3   DC D  15      49.355  24.985  69.492  1.00 13.89    -0.171 NA
ATOM    269  N4   DC D  15      50.416  23.362  70.691  1.00 15.28    -0.127 N 
ATOM    270  C2   DC D  15      49.277  26.237  69.036  1.00 18.12     0.353 A 
ATOM    271  O2   DC D  15      48.433  26.594  68.183  1.00 20.47    -0.244 OA
ENDBRANCH 261 264
BRANCH 263 272
ATOM    272  O3'  DC D  15      49.960  31.553  68.642  1.00 31.34    -0.271 OA
BRANCH 272 273
ATOM    273  P    DG D  16      49.086  32.757  69.191  1.00 32.78     0.410 P 
ATOM    274  OP1  DG D  16      48.721  33.606  68.020  1.00 34.59    -0.624 OA
ATOM    275  OP2  DG D  16      49.829  33.346  70.333  1.00 31.45    -0.624 OA
BRANCH 273 276
ATOM    276  O5'  DG D  16      47.797  32.032  69.760  1.00 31.83    -0.268 OA
BRANCH 276 277
ATOM    277  C5'  DG D  16      46.806  31.519  68.884  1.00 31.48     0.187 C 
BRANCH 277 278
ATOM    278  C4'  DG D  16      45.781  30.753  69.681  1.00 29.56     0.178 C 
ATOM    279  C3'  DG D  16      45.284  31.469  70.944  1.00 29.50     0.186 C 
ATOM    280  C2'  DG D  16      46.048  30.762  72.055  1.00 28.21     0.090 C 
ATOM    281  O3'  DG D  16      43.880  31.174  71.121  1.00 31.52    -0.221 OA
ATOM    282  C1'  DG D  16      46.057  29.358  71.512  1.00 24.75     0.210 C 
ATOM    283  O4'  DG D  16      46.349  29.508  70.141  1.00 27.49    -0.333 OA
BRANCH 282 284
ATOM    284  N9   DG D  16      47.053  28.467  72.080  1.00 21.33    -0.271 N 
ATOM    285  C4   DG D  16      47.011  27.103  72.046  1.00 19.88     0.188 A 
ATOM    286  N3   DG D  16      46.051  26.351  71.440  1.00 18.33    -0.038 NA
ATOM    287  C5   DG D  16      48.120  26.687  72.746  1.00 17.85     0.176 A 
ATOM    288  C2   DG D  16      46.263  25.074  71.581  1.00 15.82     0.773 A 
ATOM    289  N1   DG D  16      47.338  24.556  72.293  1.00 16.33    -0.016 NA
ATOM    290  N2   DG D  16      45.414  24.168  71.000  1.00 16.23     0.062 N 
ATOM    291  C6   DG D  16      48.333  25.305  72.913  1.00 15.94     0.316 A 
ATOM    292  O6   DG D  16      49.258  24.705  73.527  1.00 18.70    -0.263 OA
ATOM    293  N7   DG D  16      48.871  27.780  73.164  1.00 18.48    -0.217 NA
ATOM    294  C8   DG D  16      48.191  28.814  72.756  1.00 19.50     0.182 A 
ENDBRANCH 282 284
ENDBRANCH 277 278
ENDBRANCH 276 277
ENDBRANCH 273 276
ENDBRANCH 272 273
ENDBRANCH 263 272
ENDBRANCH 258 259
ENDBRANCH 257 258
ENDBRANCH 254 257
ENDBRANCH 253 254
ENDBRANCH 242 253
ENDBRANCH 237 238
ENDBRANCH 236 237
ENDBRANCH 233 236
ENDBRANCH 232 233
ENDBRANCH 221 232
ENDBRANCH 216 217
ENDBRANCH 215 216
ENDBRANCH 212 215
ENDBRANCH 211 212
ENDBRANCH 207 211
BRANCH 209 295
ATOM    295  N1   DT D  12      56.126  18.859  63.402  1.00 25.54    -0.256 N 
ATOM    296  C6   DT D  12      55.200  17.866  63.157  1.00 22.97     0.083 A 
ATOM    297  C5   DT D  12      54.132  18.027  62.351  1.00 22.23     0.053 A 
ATOM    298  C4   DT D  12      53.951  19.305  61.722  1.00 20.03     0.280 A 
ATOM    299  C7   DT D  12      53.117  16.964  62.080  1.00 23.27     0.038 C 
ATOM    300  O4   DT D  12      53.027  19.544  60.949  1.00 18.53    -0.265 OA
ATOM    301  N3   DT D  12      54.900  20.278  62.039  1.00 19.51    -0.153 NA
ATOM    302  C2   DT D  12      55.991  20.125  62.851  1.00 22.25     0.354 A 
ATOM    303  O2   DT D  12      56.789  21.029  63.072  1.00 24.24    -0.244 OA
ENDBRANCH 209 295
ENDBRANCH 205 206
ENDBRANCH 204 205
ENDBRANCH 201 204
ENDBRANCH 200 201
ENDBRANCH 196 200
BRANCH 198 304
ATOM    304  N9   DG D  11      55.460  17.303  59.140  1.00 15.12    -0.271 N 
ATOM    305  C8   DG D  11      54.231  17.041  58.582  1.00 13.13     0.182 A 
ATOM    306  N7   DG D  11      53.684  18.093  58.032  1.00 13.46    -0.217 NA
ATOM    307  C5   DG D  11      54.610  19.110  58.237  1.00 11.37     0.176 A 
ATOM    308  C6   DG D  11      54.567  20.453  57.827  1.00 10.16     0.316 A 
ATOM    309  C4   DG D  11      55.697  18.655  58.944  1.00 12.33     0.188 A 
ATOM    310  O6   DG D  11      53.725  20.992  57.142  1.00 10.86    -0.263 OA
ATOM    311  N1   DG D  11      55.684  21.164  58.291  1.00 10.07    -0.016 NA
ATOM    312  C2   DG D  11      56.731  20.614  59.027  1.00 11.41     0.773 A 
ATOM    313  N2   DG D  11      57.730  21.451  59.438  1.00 10.83     0.062 N 
ATOM    314  N3   DG D  11      56.791  19.336  59.355  1.00 11.83    -0.038 NA
ENDBRANCH 198 304
ENDBRANCH 194 195
ENDBRANCH 193 194
ENDBRANCH 190 193
ENDBRANCH 189 190
ENDBRANCH 185 189
BRANCH 187 315
ATOM    315  N9   DG D  10      53.356  17.196  54.444  1.00 11.23    -0.271 N 
ATOM    316  C8   DG D  10      52.241  17.748  53.840  1.00 12.20     0.182 A 
ATOM    317  N7   DG D  10      52.374  19.039  53.617  1.00 12.66    -0.217 NA
ATOM    318  C5   DG D  10      53.656  19.332  54.069  1.00 10.47     0.176 A 
ATOM    319  C4   DG D  10      54.272  18.209  54.573  1.00 10.52     0.188 A 
ATOM    320  C6   DG D  10      54.396  20.576  54.075  1.00 11.39     0.316 A 
ATOM    321  N3   DG D  10      55.511  18.096  55.088  1.00 10.98    -0.038 NA
ATOM    322  C2   DG D  10      56.148  19.261  55.128  1.00  8.78     0.773 A 
ATOM    323  N1   DG D  10      55.639  20.436  54.644  1.00  9.45    -0.016 NA
ATOM    324  N2   DG D  10      57.354  19.348  55.679  1.00 10.60     0.062 N 
ATOM    325  O6   DG D  10      54.058  21.697  53.626  1.00 10.46    -0.263 OA
ENDBRANCH 187 315
ENDBRANCH 183 184
ENDBRANCH 182 183
ENDBRANCH 179 182
ENDBRANCH 178 179
ENDBRANCH 168 178
ENDBRANCH   1 164
TORSDOF 92
